version 2
run Nodes-50-0-20211202-00:10:17-30483
attr configname Nodes-50
attr datetime 20211202-00:10:17
attr experiment Nodes-50
attr inifile omnetpp.ini
attr iterationvars ""
attr iterationvarsf ""
attr measurement ""
attr network LEACHCPckg.LEACHC
attr processid 30483
attr repetition 0
attr replication #0
attr resultdir results
attr runnumber 0
attr seedset 0
param LEACHC.noOfWirelessNode 50
param LEACHC.clusterHeadPercentage 0.1

vector 0 LEACHC.node[48] energy:vector ETV
attr source energy
attr title "node remain energe, vector"
vector 1 LEACHC.node[48] dataSent:vector ETV
attr source dataSent
attr title "node send data, vector"
vector 2 LEACHC.node[47] energy:vector ETV
attr source energy
attr title "node remain energe, vector"
vector 3 LEACHC.node[47] dataSent:vector ETV
attr source dataSent
attr title "node send data, vector"
vector 4 LEACHC.node[46] energy:vector ETV
attr source energy
attr title "node remain energe, vector"
vector 5 LEACHC.node[46] dataSent:vector ETV
attr source dataSent
attr title "node send data, vector"
vector 6 LEACHC.node[45] energy:vector ETV
attr source energy
attr title "node remain energe, vector"
vector 7 LEACHC.node[45] dataSent:vector ETV
attr source dataSent
attr title "node send data, vector"
vector 8 LEACHC.node[44] energy:vector ETV
attr source energy
attr title "node remain energe, vector"
vector 9 LEACHC.node[44] dataSent:vector ETV
attr source dataSent
attr title "node send data, vector"
vector 10 LEACHC.node[49] energy:vector ETV
attr source energy
attr title "node remain energe, vector"
vector 11 LEACHC.node[49] dataSent:vector ETV
attr source dataSent
attr title "node send data, vector"
0	2	0.04	5
1	2	0.04	1
2	3	0.06	5
3	3	0.06	1
4	4	0.08	5
5	4	0.08	1
6	5	0.1	5
7	5	0.1	1
8	6	0.12	5
9	6	0.12	1
10	7	0.12	5
11	7	0.12	1
vector 12 LEACHC.node[0] dataRecv:vector ETV
attr source dataRecv
attr title "node recv data, vector"
vector 13 LEACHC.node[0] energy:vector ETV
attr source energy
attr title "node remain energe, vector"
vector 14 LEACHC.node[3] energy:vector ETV
attr source energy
attr title "node remain energe, vector"
vector 15 LEACHC.node[3] dataSent:vector ETV
attr source dataSent
attr title "node send data, vector"
vector 16 LEACHC.node[8] energy:vector ETV
attr source energy
attr title "node remain energe, vector"
vector 17 LEACHC.node[8] dataSent:vector ETV
attr source dataSent
attr title "node send data, vector"
vector 18 LEACHC.node[13] energy:vector ETV
attr source energy
attr title "node remain energe, vector"
vector 19 LEACHC.node[13] dataSent:vector ETV
attr source dataSent
attr title "node send data, vector"
vector 20 LEACHC.node[18] energy:vector ETV
attr source energy
attr title "node remain energe, vector"
vector 21 LEACHC.node[18] dataSent:vector ETV
attr source dataSent
attr title "node send data, vector"
vector 22 LEACHC.node[28] energy:vector ETV
attr source energy
attr title "node remain energe, vector"
vector 23 LEACHC.node[28] dataSent:vector ETV
attr source dataSent
attr title "node send data, vector"
vector 24 LEACHC.node[38] energy:vector ETV
attr source energy
attr title "node remain energe, vector"
vector 25 LEACHC.node[38] dataSent:vector ETV
attr source dataSent
attr title "node send data, vector"
vector 26 LEACHC.node[2] dataRecv:vector ETV
attr source dataRecv
attr title "node recv data, vector"
vector 27 LEACHC.node[2] energy:vector ETV
attr source energy
attr title "node remain energe, vector"
vector 28 LEACHC.node[15] dataRecv:vector ETV
attr source dataRecv
attr title "node recv data, vector"
vector 29 LEACHC.node[15] energy:vector ETV
attr source energy
attr title "node remain energe, vector"
vector 30 LEACHC.node[17] dataRecv:vector ETV
attr source dataRecv
attr title "node recv data, vector"
vector 31 LEACHC.node[17] energy:vector ETV
attr source energy
attr title "node remain energe, vector"
vector 32 LEACHC.node[33] dataRecv:vector ETV
attr source dataRecv
attr title "node recv data, vector"
vector 33 LEACHC.node[33] energy:vector ETV
attr source energy
attr title "node remain energe, vector"
vector 34 LEACHC.node[7] energy:vector ETV
attr source energy
attr title "node remain energe, vector"
vector 35 LEACHC.node[7] dataSent:vector ETV
attr source dataSent
attr title "node send data, vector"
vector 36 LEACHC.node[12] energy:vector ETV
attr source energy
attr title "node remain energe, vector"
vector 37 LEACHC.node[12] dataSent:vector ETV
attr source dataSent
attr title "node send data, vector"
vector 38 LEACHC.node[22] energy:vector ETV
attr source energy
attr title "node remain energe, vector"
vector 39 LEACHC.node[22] dataSent:vector ETV
attr source dataSent
attr title "node send data, vector"
vector 40 LEACHC.node[27] energy:vector ETV
attr source energy
attr title "node remain energe, vector"
vector 41 LEACHC.node[27] dataSent:vector ETV
attr source dataSent
attr title "node send data, vector"
vector 42 LEACHC.node[32] energy:vector ETV
attr source energy
attr title "node remain energe, vector"
vector 43 LEACHC.node[32] dataSent:vector ETV
attr source dataSent
attr title "node send data, vector"
vector 44 LEACHC.node[37] energy:vector ETV
attr source energy
attr title "node remain energe, vector"
vector 45 LEACHC.node[37] dataSent:vector ETV
attr source dataSent
attr title "node send data, vector"
vector 46 LEACHC.node[23] dataRecv:vector ETV
attr source dataRecv
attr title "node recv data, vector"
vector 47 LEACHC.node[23] energy:vector ETV
attr source energy
attr title "node remain energe, vector"
vector 48 LEACHC.node[1] energy:vector ETV
attr source energy
attr title "node remain energe, vector"
vector 49 LEACHC.node[1] dataSent:vector ETV
attr source dataSent
attr title "node send data, vector"
vector 50 LEACHC.node[6] energy:vector ETV
attr source energy
attr title "node remain energe, vector"
vector 51 LEACHC.node[6] dataSent:vector ETV
attr source dataSent
attr title "node send data, vector"
vector 52 LEACHC.node[11] energy:vector ETV
attr source energy
attr title "node remain energe, vector"
vector 53 LEACHC.node[11] dataSent:vector ETV
attr source dataSent
attr title "node send data, vector"
vector 54 LEACHC.node[16] energy:vector ETV
attr source energy
attr title "node remain energe, vector"
vector 55 LEACHC.node[16] dataSent:vector ETV
attr source dataSent
attr title "node send data, vector"
vector 56 LEACHC.node[21] energy:vector ETV
attr source energy
attr title "node remain energe, vector"
vector 57 LEACHC.node[21] dataSent:vector ETV
attr source dataSent
attr title "node send data, vector"
vector 58 LEACHC.node[26] energy:vector ETV
attr source energy
attr title "node remain energe, vector"
vector 59 LEACHC.node[26] dataSent:vector ETV
attr source dataSent
attr title "node send data, vector"
vector 60 LEACHC.node[31] energy:vector ETV
attr source energy
attr title "node remain energe, vector"
vector 61 LEACHC.node[31] dataSent:vector ETV
attr source dataSent
attr title "node send data, vector"
vector 62 LEACHC.node[36] energy:vector ETV
attr source energy
attr title "node remain energe, vector"
vector 63 LEACHC.node[36] dataSent:vector ETV
attr source dataSent
attr title "node send data, vector"
vector 64 LEACHC.node[41] energy:vector ETV
attr source energy
attr title "node remain energe, vector"
vector 65 LEACHC.node[41] dataSent:vector ETV
attr source dataSent
attr title "node send data, vector"
vector 66 LEACHC.node[0] dataSent:vector ETV
attr source dataSent
attr title "node send data, vector"
vector 67 LEACHC.node[5] energy:vector ETV
attr source energy
attr title "node remain energe, vector"
vector 68 LEACHC.node[5] dataSent:vector ETV
attr source dataSent
attr title "node send data, vector"
vector 69 LEACHC.node[10] energy:vector ETV
attr source energy
attr title "node remain energe, vector"
vector 70 LEACHC.node[10] dataSent:vector ETV
attr source dataSent
attr title "node send data, vector"
vector 71 LEACHC.node[20] energy:vector ETV
attr source energy
attr title "node remain energe, vector"
vector 72 LEACHC.node[20] dataSent:vector ETV
attr source dataSent
attr title "node send data, vector"
vector 73 LEACHC.node[25] energy:vector ETV
attr source energy
attr title "node remain energe, vector"
vector 74 LEACHC.node[25] dataSent:vector ETV
attr source dataSent
attr title "node send data, vector"
vector 75 LEACHC.node[30] energy:vector ETV
attr source energy
attr title "node remain energe, vector"
vector 76 LEACHC.node[30] dataSent:vector ETV
attr source dataSent
attr title "node send data, vector"
vector 77 LEACHC.node[35] energy:vector ETV
attr source energy
attr title "node remain energe, vector"
vector 78 LEACHC.node[35] dataSent:vector ETV
attr source dataSent
attr title "node send data, vector"
vector 79 LEACHC.node[40] energy:vector ETV
attr source energy
attr title "node remain energe, vector"
vector 80 LEACHC.node[40] dataSent:vector ETV
attr source dataSent
attr title "node send data, vector"
vector 81 LEACHC.node[4] energy:vector ETV
attr source energy
attr title "node remain energe, vector"
vector 82 LEACHC.node[4] dataSent:vector ETV
attr source dataSent
attr title "node send data, vector"
vector 83 LEACHC.node[9] energy:vector ETV
attr source energy
attr title "node remain energe, vector"
vector 84 LEACHC.node[9] dataSent:vector ETV
attr source dataSent
attr title "node send data, vector"
vector 85 LEACHC.node[14] energy:vector ETV
attr source energy
attr title "node remain energe, vector"
vector 86 LEACHC.node[14] dataSent:vector ETV
attr source dataSent
attr title "node send data, vector"
vector 87 LEACHC.node[19] energy:vector ETV
attr source energy
attr title "node remain energe, vector"
vector 88 LEACHC.node[19] dataSent:vector ETV
attr source dataSent
attr title "node send data, vector"
vector 89 LEACHC.node[24] energy:vector ETV
attr source energy
attr title "node remain energe, vector"
vector 90 LEACHC.node[24] dataSent:vector ETV
attr source dataSent
attr title "node send data, vector"
vector 91 LEACHC.node[29] energy:vector ETV
attr source energy
attr title "node remain energe, vector"
vector 92 LEACHC.node[29] dataSent:vector ETV
attr source dataSent
attr title "node send data, vector"
vector 93 LEACHC.node[34] energy:vector ETV
attr source energy
attr title "node remain energe, vector"
vector 94 LEACHC.node[34] dataSent:vector ETV
attr source dataSent
attr title "node send data, vector"
vector 95 LEACHC.node[39] energy:vector ETV
attr source energy
attr title "node remain energe, vector"
vector 96 LEACHC.node[39] dataSent:vector ETV
attr source dataSent
attr title "node send data, vector"
vector 97 LEACHC.node[33] dataSent:vector ETV
attr source dataSent
attr title "node send data, vector"
vector 98 LEACHC.node[15] dataSent:vector ETV
attr source dataSent
attr title "node send data, vector"
vector 99 LEACHC.node[17] dataSent:vector ETV
attr source dataSent
attr title "node send data, vector"
vector 100 LEACHC.node[42] dataSent:vector ETV
attr source dataSent
attr title "node send data, vector"
vector 101 LEACHC.node[42] energy:vector ETV
attr source energy
attr title "node remain energe, vector"
vector 102 LEACHC.node[42] dataRecv:vector ETV
attr source dataRecv
attr title "node recv data, vector"
vector 103 LEACHC.node[23] dataSent:vector ETV
attr source dataSent
attr title "node send data, vector"
vector 104 LEACHC.node[43] dataSent:vector ETV
attr source dataSent
attr title "node send data, vector"
vector 105 LEACHC.node[43] energy:vector ETV
attr source energy
attr title "node remain energe, vector"
vector 106 LEACHC.node[2] dataSent:vector ETV
attr source dataSent
attr title "node send data, vector"
vector 107 LEACHC.node[18] dataRecv:vector ETV
attr source dataRecv
attr title "node recv data, vector"
vector 108 LEACHC.node[32] dataRecv:vector ETV
attr source dataRecv
attr title "node recv data, vector"
vector 109 LEACHC.node[29] dataRecv:vector ETV
attr source dataRecv
attr title "node recv data, vector"
vector 110 LEACHC.node[25] dataRecv:vector ETV
attr source dataRecv
attr title "node recv data, vector"
vector 111 LEACHC.node[3] dataRecv:vector ETV
attr source dataRecv
attr title "node recv data, vector"
vector 112 LEACHC.node[46] dataRecv:vector ETV
attr source dataRecv
attr title "node recv data, vector"
vector 113 LEACHC.node[8] dataRecv:vector ETV
attr source dataRecv
attr title "node recv data, vector"
vector 114 LEACHC.node[47] dataRecv:vector ETV
attr source dataRecv
attr title "node recv data, vector"
vector 115 LEACHC.node[10] dataRecv:vector ETV
attr source dataRecv
attr title "node recv data, vector"
vector 116 LEACHC.node[13] dataRecv:vector ETV
attr source dataRecv
attr title "node recv data, vector"
vector 117 LEACHC.node[45] dataRecv:vector ETV
attr source dataRecv
attr title "node recv data, vector"
vector 118 LEACHC.node[48] dataRecv:vector ETV
attr source dataRecv
attr title "node recv data, vector"
vector 119 LEACHC.node[41] dataRecv:vector ETV
attr source dataRecv
attr title "node recv data, vector"
vector 120 LEACHC.node[6] dataRecv:vector ETV
attr source dataRecv
attr title "node recv data, vector"
vector 121 LEACHC.node[27] dataRecv:vector ETV
attr source dataRecv
attr title "node recv data, vector"
vector 122 LEACHC.node[28] dataRecv:vector ETV
attr source dataRecv
attr title "node recv data, vector"
vector 123 LEACHC.node[16] dataRecv:vector ETV
attr source dataRecv
attr title "node recv data, vector"
vector 124 LEACHC.node[12] dataRecv:vector ETV
attr source dataRecv
attr title "node recv data, vector"
vector 125 LEACHC.node[44] dataRecv:vector ETV
attr source dataRecv
attr title "node recv data, vector"
vector 126 LEACHC.node[4] dataRecv:vector ETV
attr source dataRecv
attr title "node recv data, vector"
vector 127 LEACHC.node[37] dataRecv:vector ETV
attr source dataRecv
attr title "node recv data, vector"
vector 128 LEACHC.node[49] dataRecv:vector ETV
attr source dataRecv
attr title "node recv data, vector"
vector 129 LEACHC.node[7] dataRecv:vector ETV
attr source dataRecv
attr title "node recv data, vector"
vector 130 LEACHC.node[22] dataRecv:vector ETV
attr source dataRecv
attr title "node recv data, vector"
vector 131 LEACHC.node[9] dataRecv:vector ETV
attr source dataRecv
attr title "node recv data, vector"
vector 132 LEACHC.node[24] dataRecv:vector ETV
attr source dataRecv
attr title "node recv data, vector"
vector 133 LEACHC.node[20] dataRecv:vector ETV
attr source dataRecv
attr title "node recv data, vector"
vector 134 LEACHC.node[35] dataRecv:vector ETV
attr source dataRecv
attr title "node recv data, vector"
vector 135 LEACHC.node[1] dataRecv:vector ETV
attr source dataRecv
attr title "node recv data, vector"
vector 136 LEACHC.node[5] dataRecv:vector ETV
attr source dataRecv
attr title "node recv data, vector"
vector 137 LEACHC.node[30] dataRecv:vector ETV
attr source dataRecv
attr title "node recv data, vector"
vector 138 LEACHC.node[40] dataRecv:vector ETV
attr source dataRecv
attr title "node recv data, vector"
vector 139 LEACHC.node[39] dataRecv:vector ETV
attr source dataRecv
attr title "node recv data, vector"
vector 140 LEACHC.node[26] dataRecv:vector ETV
attr source dataRecv
attr title "node recv data, vector"
vector 141 LEACHC.node[38] dataRecv:vector ETV
attr source dataRecv
attr title "node recv data, vector"
vector 142 LEACHC.node[11] dataRecv:vector ETV
attr source dataRecv
attr title "node recv data, vector"
vector 143 LEACHC.node[14] dataRecv:vector ETV
attr source dataRecv
attr title "node recv data, vector"
vector 144 LEACHC.node[21] dataRecv:vector ETV
attr source dataRecv
attr title "node recv data, vector"
vector 145 LEACHC.node[34] dataRecv:vector ETV
attr source dataRecv
attr title "node recv data, vector"
vector 146 LEACHC.node[36] dataRecv:vector ETV
attr source dataRecv
attr title "node recv data, vector"
vector 147 LEACHC.node[43] dataRecv:vector ETV
attr source dataRecv
attr title "node recv data, vector"
vector 148 LEACHC.node[31] dataRecv:vector ETV
attr source dataRecv
attr title "node recv data, vector"
vector 149 LEACHC.node[19] dataRecv:vector ETV
attr source dataRecv
attr title "node recv data, vector"
0	298	1.04	5
0	886	2.04	4.99962576
0	1474	3.04	4.99935852
0	2069	4.04	4.9982820319808
0	2091	4.06	4.9980620319808
0	2106	4.08	4.9978420319808
0	2108	4.08	4.9976220319808
0	2204	4.14	4.9976220319808
0	2660	5.04	4.9969960425216
0	3194	6.04	4.9966750425216
0	3786	7.04	4.9963976025216
0	4374	8.04	4.9960233625216
0	4965	9.04	4.9956273625216
0	5555	10.04	4.9951315225216
0	6149	11.04	4.9947572825216
0	6739	12.04	4.9943830425216
0	7321	13.04	4.9940192025216
0	7984	14.04	4.9938192025216
0	8580	15.04	4.9933502425216
0	9194	16.06	4.9928630025216
0	9212	16.08	4.9926430025216
0	9296	16.14	4.9926430025216
0	9923	17.04	4.9920170130624
0	10438	18.04	4.9908754805952
0	11030	19.04	4.9905980405952
0	11620	20.04	4.9903206005952
0	12224	21.04	4.9896316405952
0	12224	21.04	4.989005651136
0	12734	22.04	4.989005651136
0	13329	23.04	4.988509811136
0	13923	24.04	4.988040851136
0	14513	25.04	4.987661291136
0	15101	26.04	4.9870887667968
0	15695	27.04	4.9859472343296
0	16289	28.04	4.9855729943296
0	16885	29.04	4.9851769943296
0	17475	30.04	4.9848131543296
0	18071	31.04	4.9813725075904
0	18669	32.04	4.9803831109772
0	19255	33.04	4.9801056709772
0	19851	34.04	4.9797846709772
0	20445	35.04	4.97864313851
0	21029	36.04	4.97837589851
0	21619	37.04	4.97800165851
0	22154	38.04	4.97740209851
0	22159	38.04	4.97718209851
0	22161	38.04	4.97696209851
0	22162	38.04	4.97674209851
0	22173	38.06	4.97652209851
0	22177	38.06	4.97630209851
0	22181	38.06	4.97608209851
0	22193	38.08	4.97586209851
0	22195	38.08	4.97564209851
0	22199	38.08	4.97542209851
0	22213	38.1	4.97520209851
0	22217	38.1	4.97498209851
0	22221	38.1	4.97476209851
0	22237	38.12	4.97454209851
0	22237	38.12	4.9739161090508
0	22238	38.12	4.9736961090508
0	22238	38.12	4.9730701195916
0	22240	38.12	4.9728501195916
0	22240	38.12	4.9722241301324
0	22299	38.14	4.9722241301324
0	22751	39.04	4.9715981406732
0	23347	40.04	4.9713207006732
0	23861	41.04	4.9708248606732
0	24455	42.04	4.9704288606732
0	25045	43.04	4.9701078606732
0	25641	44.04	4.9694843174232
0	26231	45.04	4.9691047574232
0	26817	46.04	4.9686357974232
0	27680	47.04	4.9682157974232
0	27691	47.06	4.9679957974232
0	27699	47.06	4.9677757974232
0	27711	47.08	4.9675557974232
0	27798	47.14	4.9675557974232
0	28258	48.04	4.966929807964
0	28850	49.04	4.966555567964
0	29370	50.04	4.966086607964
0	29965	51.04	4.965125275964
0	30560	52.04	4.964858035964
0	31148	53.04	4.964375795964
0	31748	54.04	4.9585947237348
0	32343	55.04	4.9553989906916
0	32346	55.04	4.9551789906916
0	32348	55.04	4.9549589906916
0	32350	55.04	4.9547389906916
0	32351	55.04	4.9545189906916
0	32365	55.06	4.9542989906916
0	32368	55.06	4.9540789906916
0	32382	55.08	4.9538589906916
0	32386	55.08	4.9536389906916
0	32387	55.08	4.9534189906916
0	32403	55.1	4.9531989906916
0	32407	55.1	4.9529789906916
0	32423	55.12	4.9527589906916
0	32423	55.12	4.9521330012324
0	32424	55.12	4.9519130012324
0	32424	55.12	4.9512870117732
0	32427	55.12	4.9510670117732
0	32427	55.12	4.950441022314
0	32483	55.14	4.950441022314
0	32936	56.04	4.9498150328548
0	33530	57.04	4.9495375928548
0	34118	58.04	4.9492165928548
0	35065	59.04	4.9488527528548
0	35584	60.04	4.9485855128548
0	36185	61.04	4.9478696728548
0	36196	61.06	4.9476496728548
0	36201	61.06	4.9474296728548
0	36213	61.08	4.9472096728548
0	36303	61.14	4.9472096728548
0	36764	62.04	4.9465836833956
0	37364	63.04	4.9453054113956
0	37954	64.04	4.9448364513956
0	38550	65.04	4.9443674913956
0	39138	66.04	4.9439879313956
0	39732	67.04	4.9436136913956
0	40330	68.04	4.9433362513956
0	40916	69.04	4.9428672913956
0	41512	70.04	4.9408354595184
0	42106	71.04	4.9405580195184
0	42684	72.04	4.9402370195184
0	43278	73.04	4.9396644951792
0	43863	74.04	4.9389755351792
0	43865	74.04	4.9387555351792
0	43870	74.04	4.9385355351792
0	43881	74.06	4.9383155351792
0	43885	74.06	4.9380955351792
0	43888	74.06	4.9378755351792
0	43899	74.08	4.9376555351792
0	43900	74.08	4.9374355351792
0	43901	74.08	4.9372155351792
0	43902	74.08	4.9369955351792
0	43905	74.08	4.9367755351792
0	43918	74.1	4.9365555351792
0	43946	74.12	4.9363355351792
0	43946	74.12	4.93570954572
0	44001	74.14	4.93570954572
0	44454	75.04	4.9350835562608
0	45052	76.04	4.9333521566716
0	45646	77.04	4.9329883166716
0	46238	78.04	4.9327210766716
0	46752	79.04	4.9314428046716
0	47352	80.04	4.9294109727944
0	47877	81.04	4.9290314127944
0	48472	82.04	4.9279549247752
0	48474	82.04	4.9277349247752
0	48489	82.06	4.9275149247752
0	48493	82.06	4.9272949247752
0	48509	82.08	4.9270749247752
0	48510	82.08	4.9268549247752
0	48511	82.08	4.9266349247752
0	48512	82.08	4.9264149247752
0	48516	82.08	4.9261949247752
0	48529	82.1	4.9259749247752
0	48554	82.12	4.9257549247752
0	48554	82.12	4.925128935316
0	48608	82.14	4.925128935316
0	49061	83.04	4.9245029458568
0	49653	84.04	4.9241391058568
0	50247	85.04	4.9238616658568
0	50840	86.04	4.9235944258568
0	51434	87.04	4.9231984258568
0	52022	88.04	4.9227294658568
0	52611	89.04	4.9221884658568
0	52614	89.04	4.9219684658568
0	52619	89.04	4.9217484658568
0	52630	89.06	4.9215284658568
0	52634	89.06	4.9213084658568
0	52638	89.06	4.9210884658568
0	52650	89.08	4.9208684658568
0	52651	89.08	4.9206484658568
0	52653	89.08	4.9204284658568
0	52743	89.14	4.9204284658568
0	53204	90.04	4.9198024763976
0	53798	91.04	4.9186609439304
0	54392	92.04	4.9182867039304
0	54972	93.04	4.9180194639304
0	55568	94.04	4.9176452239304
0	56081	95.04	4.9173242239304
0	56671	96.04	4.9164677359112
0	57269	97.04	4.9158441926612
0	57863	98.04	4.9153752326612
0	58455	99.04	4.9150977926612
0	59051	100.04	4.9147017926612
0	59647	101.04	4.914129268322
0	60233	102.04	4.913755028322
0	60830	103.04	4.913066068322
0	60833	103.04	4.912846068322
0	60837	103.04	4.912626068322
0	60848	103.06	4.912406068322
0	60851	103.06	4.912186068322
0	60854	103.06	4.911966068322
0	60865	103.08	4.911746068322
0	60866	103.08	4.911526068322
0	60867	103.08	4.911306068322
0	60868	103.08	4.911086068322
0	60872	103.08	4.910866068322
0	60885	103.1	4.910646068322
0	60888	103.1	4.910426068322
0	60894	103.1	4.910206068322
0	60906	103.12	4.909986068322
0	60906	103.12	4.9093600788628
0	60912	103.12	4.9091400788628
0	60912	103.12	4.9085140894036
0	60959	103.14	4.9085140894036
0	61419	104.04	4.9078880999444
0	62017	105.04	4.9075242599444
0	62612	106.04	4.9072032599444
0	63145	107.04	4.9068290199444
0	63737	108.04	4.9065617799444
0	64335	109.04	4.9060928199444
0	64929	110.04	4.9040609880672
0	65522	111.04	4.9035920280672
0	66107	112.04	4.9033247880672
0	66697	113.04	4.9029452280672
0	67294	114.04	4.9022293880672
0	67296	114.04	4.9020093880672
0	67311	114.06	4.9017893880672
0	67315	114.06	4.9015693880672
0	67330	114.08	4.9013493880672
0	67331	114.08	4.9011293880672
0	67332	114.08	4.9009093880672
0	67333	114.08	4.9006893880672
0	67335	114.08	4.9004693880672
0	67348	114.1	4.9002493880672
0	67376	114.12	4.9000293880672
0	67376	114.12	4.899403398608
0	67430	114.14	4.899403398608
0	67883	115.04	4.8987774091488
0	68479	116.04	4.8984135691488
0	68999	117.04	4.8980925691488
0	69594	118.04	4.8978151291488
0	70318	119.14	4.8972426048096
0	70779	120.04	4.8966166153504
0	71373	121.04	4.8962423753504
0	71961	122.04	4.8957734153504
0	72559	123.04	4.8946318828832
0	73157	124.04	4.890190083134
0	73692	125.04	4.889826243134
0	74290	126.04	4.889559003134
0	74876	127.04	4.889063163134
0	75466	128.04	4.888742163134
0	76060	129.04	4.887463891134
0	76652	130.04	4.886994931134
0	77241	131.04	4.886525971134
0	77835	132.04	4.886248531134
0	78428	133.04	4.885707531134
0	78431	133.04	4.885487531134
0	78433	133.04	4.885267531134
0	78435	133.04	4.885047531134
0	78436	133.04	4.884827531134
0	78447	133.06	4.884607531134
0	78450	133.06	4.884387531134
0	78454	133.06	4.884167531134
0	78466	133.08	4.883947531134
0	78467	133.08	4.883727531134
0	78468	133.08	4.883507531134
0	78469	133.08	4.883287531134
0	78473	133.08	4.883067531134
0	78474	133.08	4.882847531134
0	78486	133.1	4.882627531134
0	78489	133.1	4.882407531134
0	78490	133.1	4.882187531134
0	78494	133.1	4.881967531134
0	78495	133.1	4.881747531134
0	78507	133.12	4.881527531134
0	78507	133.12	4.8809015416748
0	78510	133.12	4.8806815416748
0	78510	133.12	4.8800555522156
0	78511	133.12	4.8798355522156
0	78511	133.12	4.8792095627564
0	78514	133.12	4.8789895627564
0	78514	133.12	4.8783635732972
0	78573	133.14	4.8783635732972
0	79025	134.04	4.877737583838
0	79617	135.04	4.877363343838
0	80211	136.04	4.877096103838
0	80803	137.04	4.876600263838
0	81391	138.04	4.876226023838
0	81907	139.04	4.874947751838
0	82497	140.04	4.874583911838
0	83091	141.04	4.874306471838
0	83679	142.04	4.873712231838
0	83682	142.04	4.873492231838
0	83693	142.06	4.873272231838
0	83701	142.06	4.873052231838
0	83713	142.08	4.872832231838
0	83718	142.08	4.872612231838
0	83735	142.1	4.872392231838
0	83739	142.1	4.872172231838
0	83756	142.12	4.871952231838
0	83756	142.12	4.8713262423788
0	83817	142.14	4.8713262423788
0	84269	143.04	4.8707002529196
0	84863	144.04	4.8702312929196
0	85377	145.04	4.8685912939384
0	85966	146.04	4.8683240539384
0	86562	147.04	4.8679444939384
0	87160	148.04	4.8674755339384
0	87753	149.04	4.8671012939384
0	88351	150.04	4.8665287695992
0	88943	151.04	4.862380237292
0	89538	152.04	4.8613037492728
0	89545	152.04	4.8610837492728
0	89563	152.06	4.8608637492728
0	89599	152.1	4.8606437492728
0	89663	152.14	4.8606437492728
0	90127	153.04	4.8600177598136
0	90713	154.04	4.8597403198136
0	91299	155.04	4.8594730798136
0	91822	156.04	4.8591520798136
0	92410	157.04	4.8587725198136
0	93010	158.04	4.8534686873604
0	93611	159.04	4.8528451441104
0	94201	160.04	4.8523761841104
0	94799	161.04	4.8518939441104
0	95395	162.04	4.8506156721104
0	95991	163.04	4.8503484321104
0	96590	164.04	4.8497488721104
0	96608	164.06	4.8495288721104
0	96612	164.06	4.8493088721104
0	96626	164.08	4.8490888721104
0	96719	164.14	4.8490888721104
0	97177	165.04	4.8484628826512
0	97767	166.04	4.8480886426512
0	98298	167.04	4.847099246038
0	98882	168.04	4.846821806038
0	99472	169.04	4.846425806038
0	100069	170.04	4.845826246038
0	100086	170.06	4.845606246038
0	100089	170.06	4.845386246038
0	100104	170.08	4.845166246038
0	100194	170.14	4.845166246038
0	100652	171.04	4.8445402565788
0	101204	172.04	4.8442192565788
0	101799	173.04	4.8438554165788
0	102387	174.04	4.8435779765788
0	102983	175.04	4.8424364441116
0	103581	176.04	4.8393869414504
0	104179	177.04	4.8389179814504
0	104777	178.04	4.8384490214504
0	105369	179.04	4.8381817814504
0	105966	180.04	4.8378075414504
0	106480	181.04	4.8374865414504
0	107069	182.04	4.8370175814504
0	107662	183.04	4.8364180214504
0	107680	183.06	4.8361980214504
0	107684	183.06	4.8359780214504
0	107699	183.08	4.8357580214504
0	107700	183.08	4.8355380214504
0	107702	183.08	4.8353180214504
0	107797	183.14	4.8353180214504
0	108255	184.04	4.8346920319912
0	108853	185.04	4.8340684887412
0	109447	186.04	4.8335995287412
0	110041	187.04	4.8332035287412
0	110630	188.04	4.8329260887412
0	111226	189.04	4.8326588487412
0	111829	190.04	4.8323378487412
0	112426	191.04	4.8314943054912
0	112437	191.06	4.8312743054912
0	112445	191.06	4.8310543054912
0	112457	191.08	4.8308343054912
0	112481	191.1	4.8306143054912
0	112556	191.14	4.8306143054912
0	113013	192.04	4.829988316032
0	113527	193.04	4.828710044032
0	114123	194.04	4.828314044032
0	114717	195.04	4.827845084032
0	115307	196.04	4.827362844032
0	115894	197.04	4.826988604032
0	116536	198.14	4.826614364032
0	117129	199.14	4.826336924032
0	117733	200.14	4.825058652032
0	118362	201.18	4.8242661276928
0	118383	201.2	4.8240461276928
0	118448	201.24	4.8240461276928
0	118909	202.14	4.8234201382336
0	119501	203.14	4.8229242982336
0	120097	204.14	4.8225604582336
0	120686	205.14	4.8221808982336
0	121208	206.14	4.8218598982336
0	121806	207.14	4.8215926582336
0	122400	208.14	4.8212184182336
0	122988	209.14	4.8208441782336
0	123576	210.14	4.8204803382336
0	124168	211.14	4.8202028982336
0	124762	212.14	4.8198818982336
0	125358	213.14	4.8194129382336
0	125956	214.14	4.8173811063564
0	126537	215.14	4.8168938663564
0	126544	215.14	4.8166738663564
0	126544	215.14	4.8160478768972
0	127054	216.14	4.8160478768972
0	127646	217.14	4.8155656368972
0	128238	218.14	4.8151913968972
0	128834	219.14	4.814618872558
0	129356	220.14	4.814341432558
0	129948	221.14	4.813859192558
0	130540	222.14	4.813495352558
0	131139	223.14	4.812901112558
0	131158	223.16	4.812681112558
0	131162	223.16	4.812461112558
0	131177	223.18	4.812241112558
0	131178	223.18	4.812021112558
0	131180	223.18	4.811801112558
0	131254	223.24	4.811801112558
0	131726	224.14	4.8111751230988
0	132318	225.14	4.8109078830988
0	132904	226.14	4.8105118830988
0	133500	227.14	4.8098515308376
0	134096	228.14	4.8092790064984
0	134688	229.14	4.8089580064984
0	135279	230.14	4.8082690464984
0	135283	230.14	4.8080490464984
0	135284	230.14	4.8078290464984
0	135285	230.14	4.8076090464984
0	135286	230.14	4.8073890464984
0	135287	230.14	4.8071690464984
0	135299	230.16	4.8069490464984
0	135302	230.16	4.8067290464985
0	135303	230.16	4.8065090464985
0	135304	230.16	4.8062890464985
0	135305	230.16	4.8060690464985
0	135306	230.16	4.8058490464985
0	135307	230.16	4.8056290464985
0	135318	230.18	4.8054090464985
0	135320	230.18	4.8051890464985
0	135321	230.18	4.8049690464985
0	135322	230.18	4.8047490464985
0	135323	230.18	4.8045290464985
0	135341	230.2	4.8043090464985
0	135342	230.2	4.8040890464985
0	135343	230.2	4.8038690464985
0	135345	230.2	4.8036490464985
0	135357	230.22	4.8034290464985
0	135357	230.22	4.8028030570393
0	135359	230.22	4.8025830570393
0	135359	230.22	4.8019570675801
0	135361	230.22	4.8017370675801
0	135361	230.22	4.8011110781209
0	135362	230.22	4.8008910781209
0	135362	230.22	4.8002650886617
0	135363	230.22	4.8000450886617
0	135363	230.22	4.7994190992025
0	135364	230.22	4.7991990992025
0	135364	230.22	4.7985731097433
0	135424	230.24	4.7985731097433
0	135876	231.14	4.7979471202841
0	136464	232.14	4.7975728802841
0	137054	233.14	4.7972090402841
0	137650	234.14	4.7969418002841
0	138168	235.14	4.7965458002841
0	138760	236.14	4.7955564036709
0	139352	237.14	4.7950741636709
0	139946	238.14	4.7947531636709
0	140538	239.14	4.7944757236709
0	141131	240.14	4.7939798836709
0	141723	241.14	4.7936160436709
0	142245	242.14	4.7932950436709
0	142843	243.14	4.7927225193317
0	143435	244.14	4.7923429593317
0	144027	245.14	4.7920757193317
0	144613	246.14	4.7917014793317
0	145209	247.14	4.7912192393317
0	145802	248.14	4.7903756960817
0	145804	248.14	4.7901556960817
0	145806	248.14	4.7899356960817
0	145836	248.18	4.7897156960817
0	145858	248.2	4.7894956960817
0	145878	248.22	4.7892756960817
0	145878	248.22	4.7886497066225
0	145932	248.24	4.7886497066225
0	146387	249.14	4.7880237171633
0	146983	250.14	4.7876494771633
0	147571	251.14	4.7871805171633
0	148167	252.14	4.7859022451633
0	148760	253.14	4.7851097208241
0	148763	253.14	4.7848897208241
0	148763	253.14	4.7842637313649
0	148765	253.14	4.7840437313649
0	148767	253.14	4.7838237313649
0	148768	253.14	4.7836037313649
0	149274	254.14	4.7836037313649
0	149870	255.14	4.7827472433457
0	150460	256.14	4.7823676833457
0	151046	257.14	4.7820466833457
0	151634	258.14	4.7817794433457
0	152226	259.14	4.7815020033457
0	152822	260.14	4.7757209311165
0	153411	261.14	4.7745793986493
0	153997	262.14	4.7741104386493
0	154585	263.14	4.7738329986493
0	155185	264.14	4.7718815990601
0	155185	264.14	4.7712556096009
0	155697	265.14	4.7712556096009
0	156293	266.14	4.7708917696009
0	158868	267.14	4.7706917696009
0	159466	268.14	4.7702095296009
0	160054	269.14	4.7699422896009
0	160655	270.14	4.7693262896009
0	160672	270.16	4.7691062896009
0	160779	270.24	4.7691062896009
0	161236	271.14	4.7684803001417
0	161832	272.14	4.7676238121225
0	164493	273.14	4.7660279477513
0	165087	274.14	4.7656537077513
0	165681	275.14	4.7653864677513
0	166273	276.14	4.7650069077513
1	298	1.04	2
1	886	2.04	3
1	1474	3.04	4
1	2204	4.14	5
1	2660	5.04	6
1	3194	6.04	7
1	3786	7.04	8
1	4374	8.04	9
1	4965	9.04	10
1	5555	10.04	11
1	6149	11.04	12
1	6739	12.04	13
1	7321	13.04	14
1	7984	14.04	15
1	8580	15.04	16
1	9296	16.14	17
1	9923	17.04	18
1	10438	18.04	19
1	11030	19.04	20
1	11620	20.04	21
1	12224	21.04	22
1	12734	22.04	23
1	13329	23.04	24
1	13923	24.04	25
1	14513	25.04	26
1	15101	26.04	27
1	15695	27.04	28
1	16289	28.04	29
1	16885	29.04	30
1	17475	30.04	31
1	18071	31.04	32
1	18669	32.04	33
1	19255	33.04	34
1	19851	34.04	35
1	20445	35.04	36
1	21029	36.04	37
1	21619	37.04	38
1	22237	38.12	39
1	22238	38.12	40
1	22240	38.12	41
1	22299	38.14	42
1	22751	39.04	43
1	23347	40.04	44
1	23861	41.04	45
1	24455	42.04	46
1	25045	43.04	47
1	25641	44.04	48
1	26231	45.04	49
1	26817	46.04	50
1	27798	47.14	51
1	28258	48.04	52
1	28850	49.04	53
1	29370	50.04	54
1	29965	51.04	55
1	30560	52.04	56
1	31148	53.04	57
1	31748	54.04	58
1	32423	55.12	59
1	32424	55.12	60
1	32427	55.12	61
1	32483	55.14	62
1	32936	56.04	63
1	33530	57.04	64
1	34118	58.04	65
1	35065	59.04	66
1	35584	60.04	67
1	36303	61.14	68
1	36764	62.04	69
1	37364	63.04	70
1	37954	64.04	71
1	38550	65.04	72
1	39138	66.04	73
1	39732	67.04	74
1	40330	68.04	75
1	40916	69.04	76
1	41512	70.04	77
1	42106	71.04	78
1	42684	72.04	79
1	43278	73.04	80
1	43946	74.12	81
1	44001	74.14	82
1	44454	75.04	83
1	45052	76.04	84
1	45646	77.04	85
1	46238	78.04	86
1	46752	79.04	87
1	47352	80.04	88
1	47877	81.04	89
1	48554	82.12	90
1	48608	82.14	91
1	49061	83.04	92
1	49653	84.04	93
1	50247	85.04	94
1	50840	86.04	95
1	51434	87.04	96
1	52022	88.04	97
1	52743	89.14	98
1	53204	90.04	99
1	53798	91.04	100
1	54392	92.04	101
1	54972	93.04	102
1	55568	94.04	103
1	56081	95.04	104
1	56671	96.04	105
1	57269	97.04	106
1	57863	98.04	107
1	58455	99.04	108
1	59051	100.04	109
1	59647	101.04	110
1	60233	102.04	111
1	60906	103.12	112
1	60912	103.12	113
1	60959	103.14	114
1	61419	104.04	115
1	62017	105.04	116
1	62612	106.04	117
1	63145	107.04	118
1	63737	108.04	119
1	64335	109.04	120
1	64929	110.04	121
1	65522	111.04	122
1	66107	112.04	123
1	66697	113.04	124
1	67376	114.12	125
1	67430	114.14	126
1	67883	115.04	127
1	68479	116.04	128
1	68999	117.04	129
1	69594	118.04	130
1	70318	119.14	131
1	70779	120.04	132
1	71373	121.04	133
1	71961	122.04	134
1	72559	123.04	135
1	73157	124.04	136
1	73692	125.04	137
1	74290	126.04	138
1	74876	127.04	139
1	75466	128.04	140
1	76060	129.04	141
1	76652	130.04	142
1	77241	131.04	143
1	77835	132.04	144
1	78507	133.12	145
1	78510	133.12	146
1	78511	133.12	147
1	78514	133.12	148
1	78573	133.14	149
1	79025	134.04	150
1	79617	135.04	151
1	80211	136.04	152
1	80803	137.04	153
1	81391	138.04	154
1	81907	139.04	155
1	82497	140.04	156
1	83091	141.04	157
1	83756	142.12	158
1	83817	142.14	159
1	84269	143.04	160
1	84863	144.04	161
1	85377	145.04	162
1	85966	146.04	163
1	86562	147.04	164
1	87160	148.04	165
1	87753	149.04	166
1	88351	150.04	167
1	88943	151.04	168
1	89663	152.14	169
1	90127	153.04	170
1	90713	154.04	171
1	91299	155.04	172
1	91822	156.04	173
1	92410	157.04	174
1	93010	158.04	175
1	93611	159.04	176
1	94201	160.04	177
1	94799	161.04	178
1	95395	162.04	179
1	95991	163.04	180
1	96719	164.14	181
1	97177	165.04	182
1	97767	166.04	183
1	98298	167.04	184
1	98882	168.04	185
1	99472	169.04	186
1	100194	170.14	187
1	100652	171.04	188
1	101204	172.04	189
1	101799	173.04	190
1	102387	174.04	191
1	102983	175.04	192
1	103581	176.04	193
1	104179	177.04	194
1	104777	178.04	195
1	105369	179.04	196
1	105966	180.04	197
1	106480	181.04	198
1	107069	182.04	199
1	107797	183.14	200
1	108255	184.04	201
1	108853	185.04	202
1	109447	186.04	203
1	110041	187.04	204
1	110630	188.04	205
1	111226	189.04	206
1	111829	190.04	207
1	112556	191.14	208
1	113013	192.04	209
1	113527	193.04	210
1	114123	194.04	211
1	114717	195.04	212
1	115307	196.04	213
1	115894	197.04	214
1	116536	198.14	215
1	117129	199.14	216
1	117733	200.14	217
1	118448	201.24	218
1	118909	202.14	219
1	119501	203.14	220
1	120097	204.14	221
1	120686	205.14	222
1	121208	206.14	223
1	121806	207.14	224
1	122400	208.14	225
1	122988	209.14	226
1	123576	210.14	227
1	124168	211.14	228
1	124762	212.14	229
1	125358	213.14	230
1	125956	214.14	231
1	126544	215.14	232
1	127054	216.14	233
1	127646	217.14	234
1	128238	218.14	235
1	128834	219.14	236
1	129356	220.14	237
1	129948	221.14	238
1	130540	222.14	239
1	131254	223.24	240
1	131726	224.14	241
1	132318	225.14	242
1	132904	226.14	243
1	133500	227.14	244
1	134096	228.14	245
1	134688	229.14	246
1	135357	230.22	247
1	135359	230.22	248
1	135361	230.22	249
1	135362	230.22	250
1	135363	230.22	251
1	135364	230.22	252
1	135424	230.24	253
1	135876	231.14	254
1	136464	232.14	255
1	137054	233.14	256
1	137650	234.14	257
1	138168	235.14	258
1	138760	236.14	259
1	139352	237.14	260
1	139946	238.14	261
1	140538	239.14	262
1	141131	240.14	263
1	141723	241.14	264
1	142245	242.14	265
1	142843	243.14	266
1	143435	244.14	267
1	144027	245.14	268
1	144613	246.14	269
1	145209	247.14	270
1	145878	248.22	271
1	145932	248.24	272
1	146387	249.14	273
1	146983	250.14	274
1	147571	251.14	275
1	148167	252.14	276
1	148763	253.14	277
1	149274	254.14	278
1	149870	255.14	279
1	150460	256.14	280
1	151046	257.14	281
1	151634	258.14	282
1	152226	259.14	283
1	152822	260.14	284
1	153411	261.14	285
1	153997	262.14	286
1	154585	263.14	287
1	155185	264.14	288
1	155697	265.14	289
1	156293	266.14	290
1	158868	267.14	291
1	159466	268.14	292
1	160054	269.14	293
1	160779	270.24	294
1	161236	271.14	295
1	161832	272.14	296
1	164493	273.14	297
1	165087	274.14	298
1	165681	275.14	299
1	166273	276.14	300
2	315	1.06	5
2	903	2.06	4.99979324
2	1475	3.04	4.99934824
2	1478	3.04	4.99912824
2	1479	3.04	4.99890824
2	1480	3.04	4.99868824
2	1481	3.04	4.99846824
2	1482	3.04	4.99824824
2	1483	3.04	4.99802824
2	1495	3.06	4.99780824
2	1498	3.06	4.99758824
2	1499	3.06	4.99736824
2	1500	3.06	4.99714824
2	1501	3.06	4.99692824
2	1502	3.06	4.99670824
2	1516	3.08	4.99648824
2	1517	3.08	4.99626824
2	1519	3.08	4.99604824
2	1536	3.1	4.99582824
2	1537	3.1	4.99560824
2	1538	3.1	4.99538824
2	1540	3.1	4.99516824
2	1551	3.12	4.99494824
2	1551	3.12	4.99452088
2	1553	3.12	4.99430088
2	1553	3.12	4.99387352
2	1555	3.12	4.99365352
2	1555	3.12	4.99322616
2	1556	3.12	4.99300616
2	1556	3.12	4.9925788
2	1557	3.12	4.9923588
2	1557	3.12	4.99193144
2	1558	3.12	4.99171144
2	1558	3.12	4.99128408
2	1626	3.16	4.99128408
2	2086	4.06	4.99085672
2	2680	5.06	4.99054008
2	3214	6.06	4.99023192
2	3806	7.06	4.98996136
2	4393	8.06	4.98973636
2	4984	9.06	4.98953492
2	5575	10.06	4.98930992
2	6167	11.06	4.98868637675
2	6757	12.06	4.98843453675
2	7452	13.06	4.98816397675
2	8004	14.06	4.98796397675
2	8599	15.06	4.98776253675
2	9181	16.04	4.98723849675
2	9182	16.04	4.98701849675
2	9195	16.06	4.98679849675
2	9200	16.06	4.98657849675
2	9215	16.08	4.98635849675
2	9216	16.08	4.98613849675
2	9235	16.1	4.98591849675
2	9236	16.1	4.98569849675
2	9250	16.12	4.98547849675
2	9250	16.12	4.98505113675
2	9252	16.12	4.98483113675
2	9252	16.12	4.98440377675
2	9254	16.12	4.98418377675
2	9254	16.12	4.98375641675
2	9256	16.12	4.98353641675
2	9256	16.12	4.98310905675
2	9308	16.16	4.98310905675
2	10457	18.06	4.98268169675
2	11035	19.04	4.98215353675
2	11037	19.04	4.98193353675
2	11052	19.06	4.98171353675
2	11055	19.06	4.98149353675
2	11056	19.06	4.98127353675
2	11072	19.08	4.98105353675
2	11073	19.08	4.98083353675
2	11091	19.1	4.98061353675
2	11092	19.1	4.98039353675
2	11106	19.12	4.98017353675
2	11106	19.12	4.97974617675
2	11108	19.12	4.97952617675
2	11108	19.12	4.97909881675
2	11111	19.12	4.97887881675
2	11111	19.12	4.97845145675
2	11112	19.12	4.97823145675
2	11112	19.12	4.97780409675
2	11170	19.16	4.97780409675
2	11639	20.06	4.97737673675
2	12752	22.06	4.97706857675
2	13348	23.06	4.97686713675
2	13941	24.06	4.97664213675
2	14533	25.06	4.97634213675
2	15120	26.06	4.97611713675
2	15715	27.06	4.9734222536268
2	16308	28.06	4.9725901903768
2	16904	29.06	4.9723383503768
2	17495	30.06	4.9721369103768
2	18091	31.06	4.9717679103768
2	18673	32.04	4.9713229103768
2	18674	32.04	4.9711029103768
2	18675	32.04	4.9708829103768
2	18677	32.04	4.9706629103768
2	18692	32.06	4.9704429103768
2	18693	32.06	4.9702229103768
2	18695	32.06	4.9700029103768
2	18709	32.08	4.9697829103768
2	18710	32.08	4.9695629103768
2	18728	32.1	4.9693429103768
2	18729	32.1	4.9691229103768
2	18731	32.1	4.9689029103768
2	18747	32.12	4.9686829103768
2	18747	32.12	4.9682555503768
2	18748	32.12	4.9680355503768
2	18748	32.12	4.9676081903768
2	18749	32.12	4.9673881903768
2	18749	32.12	4.9669608303768
2	18805	32.16	4.9669608303768
2	19275	33.06	4.9665334703768
2	19870	34.06	4.9662334703768
2	20461	35.06	4.9645934713956
2	21048	36.06	4.9643867113956
2	21638	37.06	4.9641617113956
2	22172	38.06	4.9639098713956
2	22771	39.06	4.9632863281456
2	23880	41.06	4.9622080688624
2	24473	42.06	4.9619562288624
2	25049	43.04	4.9614515888624
2	25050	43.04	4.9612315888624
2	25051	43.04	4.9610115888624
2	25052	43.04	4.9607915888624
2	25053	43.04	4.9605715888624
2	25066	43.06	4.9603515888624
2	25070	43.06	4.9601315888624
2	25071	43.06	4.9599115888624
2	25072	43.06	4.9596915888624
2	25087	43.08	4.9594715888624
2	25089	43.08	4.9592515888624
2	25107	43.1	4.9590315888624
2	25108	43.1	4.9588115888624
2	25109	43.1	4.9585915888624
2	25111	43.1	4.9583715888624
2	25123	43.12	4.9581515888624
2	25123	43.12	4.9577242288624
2	25125	43.12	4.9575042288624
2	25125	43.12	4.9570768688624
2	25127	43.12	4.9568568688624
2	25127	43.12	4.9564295088624
2	25128	43.12	4.9562095088624
2	25128	43.12	4.9557821488624
2	25129	43.12	4.9555621488624
2	25129	43.12	4.9551347888624
2	25130	43.12	4.9549147888624
2	25130	43.12	4.9544874288624
2	25199	43.16	4.9544874288624
2	25660	44.06	4.9540600688624
2	26250	45.06	4.9538586288624
2	27142	46.06	4.9530503024112
2	27690	47.06	4.9528503024112
2	28278	48.06	4.9526435424112
2	28856	49.04	4.9521985424112
2	28856	49.04	4.9517711824112
2	28857	49.04	4.9515511824112
2	28857	49.04	4.9511238224112
2	28858	49.04	4.9509038224112
2	28858	49.04	4.9504764624112
2	28876	49.06	4.9504764624112
2	29390	50.06	4.9500491024112
2	29984	51.06	4.9498476624112
2	30579	52.06	4.9495436224112
2	31168	53.06	4.9493186224112
2	31767	54.06	4.9488752624112
2	32361	55.06	4.9485906224112
2	32956	56.06	4.9481832624112
2	33547	57.06	4.9478142624112
2	34136	58.06	4.9475892624112
2	35604	60.06	4.9473642624112
2	36195	61.06	4.9471392624112
2	36784	62.06	4.9469142624112
2	37381	63.06	4.94527426343
2	37959	64.04	4.94484750343
2	37960	64.04	4.94462750343
2	37961	64.04	4.94440750343
2	37975	64.06	4.94418750343
2	37977	64.06	4.94396750343
2	37979	64.06	4.94374750343
2	37980	64.06	4.94352750343
2	37981	64.06	4.94330750343
2	37996	64.08	4.94308750343
2	37997	64.08	4.94286750343
2	37998	64.08	4.94264750343
2	38014	64.1	4.94242750343
2	38018	64.1	4.94220750343
2	38019	64.1	4.94198750343
2	38020	64.1	4.94176750343
2	38033	64.12	4.94154750343
2	38033	64.12	4.94112014343
2	38034	64.12	4.94090014343
2	38034	64.12	4.94047278343
2	38038	64.12	4.94025278343
2	38038	64.12	4.93982542343
2	38039	64.12	4.93960542343
2	38039	64.12	4.93917806343
2	38040	64.12	4.93895806343
2	38040	64.12	4.93853070343
2	38041	64.12	4.93831070343
2	38041	64.12	4.93788334343
2	38108	64.16	4.93788334343
2	38569	65.06	4.93745598343
2	39157	66.06	4.93717134343
2	39752	67.06	4.93694634343
2	40349	68.06	4.9358680841468
2	40935	69.06	4.9355680841468
2	41532	70.06	4.9352834441468
2	42124	71.06	4.9350584441468
2	42704	72.06	4.9348570041468
2	43295	73.06	4.9345488441468
2	43867	74.04	4.9341038441468
2	43868	74.04	4.9338838441468
2	43869	74.04	4.9336638441468
2	43887	74.06	4.9334438441468
2	43903	74.08	4.9332238441468
2	43904	74.08	4.9330038441468
2	43919	74.1	4.9327838441468
2	43922	74.1	4.9325638441468
2	43923	74.1	4.9323438441468
2	43926	74.1	4.9321238441468
2	43940	74.12	4.9319038441468
2	43940	74.12	4.9314764841468
2	43942	74.12	4.9312564841468
2	43942	74.12	4.9308291241468
2	43943	74.12	4.9306091241468
2	43943	74.12	4.9301817641468
2	43945	74.12	4.9299617641468
2	43945	74.12	4.9295344041468
2	43947	74.12	4.9293144041468
2	43947	74.12	4.9288870441468
2	44011	74.16	4.9288870441468
2	44473	75.06	4.9284596841468
2	45072	76.06	4.9281596841468
2	45665	77.06	4.9278891241468
2	46772	79.06	4.9275201241468
2	47878	81.04	4.9264917976956
2	47881	81.04	4.9262717976956
2	47882	81.04	4.9260517976956
2	47883	81.04	4.9258317976956
2	47884	81.04	4.9256117976956
2	47885	81.04	4.9253917976956
2	47886	81.04	4.9251717976956
2	47887	81.04	4.9249517976956
2	47898	81.06	4.9247317976956
2	47901	81.06	4.9245117976956
2	47902	81.06	4.9242917976957
2	47904	81.06	4.9240717976957
2	47905	81.06	4.9238517976957
2	47916	81.08	4.9236317976957
2	47917	81.08	4.9234117976957
2	47919	81.08	4.9231917976957
2	47920	81.08	4.9229717976957
2	47922	81.08	4.9227517976957
2	47937	81.1	4.9225317976957
2	47939	81.1	4.9223117976957
2	47940	81.1	4.9220917976957
2	47943	81.1	4.9218717976957
2	47957	81.12	4.9216517976957
2	47957	81.12	4.9212244376957
2	47959	81.12	4.9210044376957
2	47959	81.12	4.9205770776957
2	47960	81.12	4.9203570776957
2	47960	81.12	4.9199297176957
2	47961	81.12	4.9197097176957
2	47961	81.12	4.9192823576957
2	47962	81.12	4.9190623576957
2	47962	81.12	4.9186349976957
2	47963	81.12	4.9184149976957
2	47963	81.12	4.9179876376957
2	48029	81.16	4.9179876376957
2	48488	82.06	4.9175602776957
2	49081	83.06	4.9173352776957
2	49672	84.06	4.9171338376957
2	50265	85.06	4.9169270776957
2	50858	86.06	4.9164008180425
2	51452	87.06	4.9161489780425
2	52042	88.06	4.9159239780425
2	52629	89.06	4.9156989780425
2	53223	90.06	4.9154284180425
2	53818	91.06	4.9129297547925
2	54409	92.06	4.9127047547925
2	54991	93.06	4.9125033147925
2	56082	95.04	4.9120314747925
2	56086	95.04	4.9118114747925
2	56087	95.04	4.9115914747925
2	56088	95.04	4.9113714747925
2	56089	95.04	4.9111514747925
2	56090	95.04	4.9109314747925
2	56091	95.04	4.9107114747925
2	56105	95.06	4.9104914747925
2	56108	95.06	4.9102714747925
2	56109	95.06	4.9100514747925
2	56123	95.08	4.9098314747925
2	56124	95.08	4.9096114747925
2	56126	95.08	4.9093914747925
2	56143	95.1	4.9091714747925
2	56144	95.1	4.9089514747925
2	56146	95.1	4.9087314747925
2	56159	95.12	4.9085114747925
2	56159	95.12	4.9080841147925
2	56160	95.12	4.9078641147925
2	56160	95.12	4.9074367547925
2	56161	95.12	4.9072167547925
2	56161	95.12	4.9067893947925
2	56163	95.12	4.9065693947925
2	56163	95.12	4.9061420347925
2	56164	95.12	4.9059220347925
2	56164	95.12	4.9054946747925
2	56214	95.16	4.9054946747925
2	56691	96.06	4.9050673147925
2	57287	97.06	4.9047591547925
2	57882	98.06	4.9044425147925
2	58474	99.06	4.9041578747925
2	59070	100.06	4.9039060347925
2	59665	101.06	4.9035978747925
2	60253	102.06	4.9033728747925
2	60834	103.04	4.9027838747925
2	60835	103.04	4.9025638747925
2	60836	103.04	4.9023438747925
2	60853	103.06	4.9021238747925
2	60869	103.08	4.9019038747925
2	60871	103.08	4.9016838747925
2	60889	103.1	4.9014638747925
2	60890	103.1	4.9012438747925
2	60893	103.1	4.9010238747925
2	60907	103.12	4.9008038747925
2	60907	103.12	4.9003765147925
2	60908	103.12	4.9001565147925
2	60908	103.12	4.8997291547925
2	60909	103.12	4.8995091547925
2	60909	103.12	4.8990817947925
2	60911	103.12	4.8988617947925
2	60911	103.12	4.8984344347925
2	60970	103.16	4.8984344347925
2	61439	104.06	4.8980070747925
2	62036	105.06	4.8977365147925
2	62632	106.06	4.8975350747925
2	63163	107.06	4.8973100747925
2	63756	108.06	4.8967838151393
2	64355	109.06	4.8953544239841
2	64949	110.06	4.8945460975329
2	65536	111.06	4.8943210975329
2	66127	112.06	4.8941143375329
2	66717	113.06	4.8938143375329
2	67310	114.06	4.8935893375329
2	67903	115.06	4.8933878975329
2	69019	117.06	4.8931173375329
2	69599	118.04	4.8922737942829
2	69601	118.04	4.8920537942829
2	69638	118.08	4.8918337942829
2	69677	118.12	4.8916137942829
2	69677	118.12	4.8911864342829
2	69737	118.16	4.8911864342829
2	70205	119.06	4.8907590742829
2	70799	120.06	4.8903900742829
2	71379	121.04	4.8897267142829
2	71414	121.08	4.8895067142829
2	71454	121.12	4.8892867142829
2	71454	121.12	4.8888593542829
2	71510	121.16	4.8888593542829
2	71980	122.06	4.8884319942829
2	72578	123.06	4.8882252342829
2	73175	124.06	4.8857265710329
2	73710	125.06	4.8855015710329
2	74310	126.06	4.8849753113797
2	74895	127.06	4.8847738713797
2	75485	128.06	4.8843665113797
2	76079	129.06	4.8839975113797
2	76670	130.06	4.8836934713797
2	77260	131.06	4.8834920313797
2	77840	132.04	4.8830201913797
2	77841	132.04	4.8828001913797
2	77842	132.04	4.8825801913797
2	77843	132.04	4.8823601913797
2	77844	132.04	4.8821401913797
2	77857	132.06	4.8819201913797
2	77861	132.06	4.8817001913797
2	77862	132.06	4.8814801913797
2	77863	132.06	4.8812601913797
2	77877	132.08	4.8810401913797
2	77878	132.08	4.8808201913797
2	77896	132.1	4.8806001913797
2	77897	132.1	4.8803801913797
2	77898	132.1	4.8801601913797
2	77900	132.1	4.8799401913797
2	77912	132.12	4.8797201913797
2	77912	132.12	4.8792928313797
2	77914	132.12	4.8790728313797
2	77914	132.12	4.8786454713797
2	77915	132.12	4.8784254713797
2	77915	132.12	4.8779981113797
2	77916	132.12	4.8777781113797
2	77916	132.12	4.8773507513797
2	77917	132.12	4.8771307513797
2	77917	132.12	4.8767033913797
2	77918	132.12	4.8764833913797
2	77918	132.12	4.8760560313797
2	77980	132.16	4.8760560313797
2	78446	133.06	4.8756286713797
2	79044	134.06	4.8752213113797
2	79635	135.06	4.8705751237585
2	80231	136.06	4.8703683637585
2	80821	137.06	4.8701433637585
2	81927	139.06	4.8697743637585
2	82517	140.06	4.8695493637585
2	83109	141.06	4.8691906037585
2	83692	142.06	4.8689059637585
2	84288	143.06	4.8684032037585
2	85395	145.06	4.8682017637585
2	85985	146.06	4.8679767637585
2	86580	147.06	4.8677700037585
2	87161	148.04	4.8672333637585
2	87165	148.04	4.8670133637585
2	87167	148.04	4.8667933637585
2	87168	148.04	4.8665733637585
2	87182	148.06	4.8663533637585
2	87186	148.06	4.8661333637585
2	87187	148.06	4.8659133637585
2	87201	148.08	4.8656933637585
2	87202	148.08	4.8654733637585
2	87221	148.1	4.8652533637585
2	87222	148.1	4.8650333637585
2	87236	148.12	4.8648133637585
2	87236	148.12	4.8643860037585
2	87238	148.12	4.8641660037585
2	87238	148.12	4.8637386437585
2	87240	148.12	4.8635186437585
2	87240	148.12	4.8630912837585
2	87241	148.12	4.8628712837585
2	87241	148.12	4.8624439237585
2	87242	148.12	4.8622239237585
2	87242	148.12	4.8617965637585
2	87297	148.16	4.8617965637585
2	87773	149.06	4.8613692037585
2	88370	150.06	4.8610104437585
2	88944	151.04	4.8603830837585
2	88947	151.04	4.8601630837585
2	88950	151.04	4.8599430837585
2	88951	151.04	4.8597230837585
2	88953	151.04	4.8595030837585
2	88964	151.06	4.8592830837585
2	88968	151.06	4.8590630837585
2	88971	151.06	4.8588430837585
2	88983	151.08	4.8586230837585
2	88984	151.08	4.8584030837585
2	88985	151.08	4.8581830837585
2	88986	151.08	4.8579630837585
2	88987	151.08	4.8577430837585
2	88989	151.08	4.8575230837585
2	89002	151.1	4.8573030837585
2	89005	151.1	4.8570830837585
2	89007	151.1	4.8568630837585
2	89009	151.1	4.8566430837585
2	89021	151.12	4.8564230837585
2	89021	151.12	4.8559957237585
2	89022	151.12	4.8557757237585
2	89022	151.12	4.8553483637585
2	89024	151.12	4.8551283637585
2	89024	151.12	4.8547010037585
2	89027	151.12	4.8544810037585
2	89027	151.12	4.8540536437585
2	89028	151.12	4.8538336437585
2	89028	151.12	4.8534062837585
2	89029	151.12	4.8531862837585
2	89029	151.12	4.8527589237585
2	89095	151.16	4.8527589237585
2	89555	152.06	4.8523315637585
2	90146	153.06	4.8521065637585
2	90730	154.06	4.8514830205085
2	91840	156.06	4.8512580205085
2	92430	157.06	4.8510512605085
2	93030	158.06	4.8614407314525
2	93629	159.06	4.8611325714525
2	94221	160.06	4.8607635714525
2	94819	161.06	4.8605621314525
2	95414	162.06	4.8602580914525
2	96011	163.06	4.8597318317993
2	96607	164.06	4.8593628317993
2	97197	165.06	4.8590546717993
2	97787	166.06	4.8588296717993
2	98316	167.06	4.8586046717993
2	98923	168.08	4.8581596717993
2	98925	168.08	4.8579396717993
2	98964	168.12	4.8577196717993
2	98964	168.12	4.8572923117993
2	99030	168.16	4.8572923117993
2	99491	169.06	4.8568649517993
2	100073	170.04	4.8564435117993
2	100075	170.04	4.8562235117993
2	100087	170.06	4.8560035117993
2	100091	170.06	4.8557835117993
2	100108	170.08	4.8555635117993
2	100126	170.1	4.8553435117993
2	100127	170.1	4.8551235117993
2	100141	170.12	4.8549035117993
2	100141	170.12	4.8544761517993
2	100147	170.12	4.8542561517993
2	100147	170.12	4.8538287917993
2	100148	170.12	4.8536087917993
2	100148	170.12	4.8531814317993
2	100209	170.16	4.8531814317993
2	100670	171.06	4.8527540717993
2	101223	172.06	4.8525290717993
2	101818	173.06	4.8523040717993
2	102407	174.06	4.8520790717993
2	103003	175.06	4.8493841886761
2	103600	176.06	4.8490841886761
2	104199	177.06	4.8487760286761
2	104796	178.06	4.8481524854261
2	105389	179.06	4.8477937254261
2	106498	181.06	4.8475687254261
2	107087	182.06	4.8473672854261
2	107666	183.04	4.8469222854261
2	107667	183.04	4.8467022854261
2	107668	183.04	4.8464822854261
2	107669	183.04	4.8462622854261
2	107681	183.06	4.8460422854261
2	107685	183.06	4.8458222854261
2	107686	183.06	4.8456022854261
2	107687	183.06	4.8453822854261
2	107703	183.08	4.8451622854261
2	107704	183.08	4.8449422854261
2	107705	183.08	4.8447222854261
2	107722	183.1	4.8445022854261
2	107723	183.1	4.8442822854261
2	107724	183.1	4.8440622854261
2	107726	183.1	4.8438422854261
2	107738	183.12	4.8436222854261
2	107738	183.12	4.8431949254261
2	107740	183.12	4.8429749254261
2	107740	183.12	4.8425475654261
2	107742	183.12	4.8423275654261
2	107742	183.12	4.8419002054261
2	107744	183.12	4.8416802054261
2	107744	183.12	4.8412528454261
2	107745	183.12	4.8410328454261
2	107745	183.12	4.8406054854261
2	107813	183.16	4.8406054854261
2	108275	184.06	4.8401781254261
2	108871	185.06	4.8398699654261
2	109466	186.06	4.8396632054261
2	110061	187.06	4.8394113654261
2	110649	188.06	4.8391863654261
2	111246	189.06	4.8386601057729
2	111834	190.04	4.8379373457729
2	111836	190.04	4.8377173457729
2	111837	190.04	4.8374973457729
2	111871	190.08	4.8372773457729
2	111891	190.1	4.8370573457729
2	111907	190.12	4.8368373457729
2	111907	190.12	4.8364099857729
2	111909	190.12	4.8361899857729
2	111909	190.12	4.8357626257729
2	111912	190.12	4.8355426257729
2	111912	190.12	4.8351152657729
2	111979	190.16	4.8351152657729
2	112436	191.06	4.8346879057729
2	113546	193.06	4.8344811457729
2	114142	194.06	4.8342293057729
2	114737	195.06	4.8340043057729
2	115325	196.06	4.8336455457729
2	115914	197.06	4.8334205457729
2	116556	198.16	4.8330515457729
2	117149	199.16	4.8328501057729
2	117752	200.16	4.8312101067917
2	118343	201.16	4.8309019467917
2	118928	202.16	4.8306951867917
2	119520	203.16	4.8304701867917
2	120117	204.16	4.8301996267917
2	120691	205.14	4.8297546267917
2	120691	205.14	4.8293272667917
2	120693	205.14	4.8291072667917
2	120693	205.14	4.8286799067917
2	120694	205.14	4.8284599067917
2	120694	205.14	4.8280325467917
2	120714	205.16	4.8280325467917
2	121227	206.16	4.8276051867917
2	121825	207.16	4.8274037467917
2	122417	208.16	4.8271787467917
2	123006	209.16	4.8269269067917
2	123596	210.16	4.8267019067917
2	124187	211.16	4.8264769067917
2	124780	212.16	4.8261079067917
2	125378	213.16	4.8258232667917
2	125974	214.16	4.8167927220505
2	127074	216.16	4.8165912820505
2	127651	217.14	4.8160712820505
2	127653	217.14	4.8158512820505
2	127666	217.16	4.8156312820505
2	127670	217.16	4.8154112820505
2	127671	217.16	4.8151912820505
2	127688	217.18	4.8149712820505
2	127690	217.18	4.8147512820505
2	127708	217.2	4.8145312820505
2	127709	217.2	4.8143112820505
2	127723	217.22	4.8140912820505
2	127723	217.22	4.8136639220505
2	127728	217.22	4.8134439220505
2	127728	217.22	4.8130165620505
2	127729	217.22	4.8127965620505
2	127729	217.22	4.8123692020505
2	127786	217.26	4.8123692020505
2	128258	218.16	4.8119418420505
2	128842	219.14	4.8113630820505
2	128842	219.14	4.8109357220505
2	128862	219.16	4.8109357220505
2	129375	220.16	4.8105083620505
2	129968	221.16	4.8102237220505
2	130560	222.16	4.8099531620505
2	131157	223.16	4.8058989188005
2	131742	224.16	4.8056739188005
2	132335	225.16	4.8053572788005
2	132924	226.16	4.8051505188005
2	133520	227.16	4.8049255188005
2	134115	228.16	4.8045667588005
2	134693	229.14	4.8038439988005
2	134694	229.14	4.8036239988005
2	134695	229.14	4.8034039988005
2	134709	229.16	4.8031839988005
2	134712	229.16	4.8029639988005
2	134713	229.16	4.8027439988005
2	134714	229.16	4.8025239988005
2	134729	229.18	4.8023039988005
2	134730	229.18	4.8020839988005
2	134749	229.2	4.8018639988005
2	134750	229.2	4.8016439988005
2	134764	229.22	4.8014239988005
2	134764	229.22	4.8009966388005
2	134766	229.22	4.8007766388005
2	134766	229.22	4.8003492788005
2	134769	229.22	4.8001292788005
2	134769	229.22	4.7997019188005
2	134770	229.22	4.7994819188005
2	134770	229.22	4.7990545588005
2	134833	229.26	4.7990545588005
2	135297	230.16	4.7986271988005
2	135895	231.16	4.7977707107813
2	136484	232.16	4.7975457107813
2	137073	233.16	4.7972751507813
2	138186	235.16	4.7968677907813
2	138780	236.16	4.7966610307813
2	139371	237.16	4.7964595907813
2	139965	238.16	4.7960905907813
2	140557	239.16	4.7958059507813
2	141150	240.16	4.7955809507813
2	142265	242.16	4.7953795107813
2	142862	243.16	4.7950207507813
2	143439	244.14	4.7944841107813
2	143440	244.14	4.7942641107813
2	143441	244.14	4.7940441107813
2	143442	244.14	4.7938241107813
2	143459	244.16	4.7936041107813
2	143461	244.16	4.7933841107813
2	143462	244.16	4.7931641107813
2	143476	244.18	4.7929441107813
2	143478	244.18	4.7927241107813
2	143496	244.2	4.7925041107813
2	143497	244.2	4.7922841107813
2	143500	244.2	4.7920641107813
2	143513	244.22	4.7918441107813
2	143513	244.22	4.7914167507813
2	143515	244.22	4.7911967507813
2	143515	244.22	4.7907693907813
2	143516	244.22	4.7905493907813
2	143516	244.22	4.7901220307813
2	143518	244.22	4.7899020307813
2	143518	244.22	4.7894746707813
2	143580	244.26	4.7894746707813
2	144046	245.16	4.7890473107813
2	144633	246.16	4.7888405507813
2	145229	247.16	4.7882170075313
2	145816	248.16	4.7879088475313
2	146407	249.16	4.7876242075313
2	146998	250.16	4.7867921442813
2	147591	251.16	4.7865853842813
2	148186	252.16	4.7860442122813
2	149275	254.14	4.7854654522813
2	149276	254.14	4.7852454522813
2	149277	254.14	4.7850254522813
2	149278	254.14	4.7848054522813
2	149281	254.14	4.7845854522813
2	149282	254.14	4.7843654522813
2	149284	254.14	4.7841454522813
2	149295	254.16	4.7839254522813
2	149296	254.16	4.7837054522813
2	149297	254.16	4.7834854522813
2	149298	254.16	4.7832654522813
2	149299	254.16	4.7830454522813
2	149301	254.16	4.7828254522813
2	149302	254.16	4.7826054522813
2	149314	254.18	4.7823854522813
2	149315	254.18	4.7821654522813
2	149316	254.18	4.7819454522813
2	149317	254.18	4.7817254522813
2	149318	254.18	4.7815054522813
2	149320	254.18	4.7812854522813
2	149321	254.18	4.7810654522813
2	149322	254.18	4.7808454522813
2	149333	254.2	4.7806254522813
2	149334	254.2	4.7804054522813
2	149335	254.2	4.7801854522813
2	149336	254.2	4.7799654522813
2	149338	254.2	4.7797454522813
2	149339	254.2	4.7795254522813
2	149340	254.2	4.7793054522813
2	149342	254.2	4.7790854522813
2	149353	254.22	4.7788654522813
2	149353	254.22	4.7784380922813
2	149354	254.22	4.7782180922813
2	149354	254.22	4.7777907322813
2	149355	254.22	4.7775707322813
2	149355	254.22	4.7771433722813
2	149356	254.22	4.7769233722813
2	149356	254.22	4.7764960122813
2	149357	254.22	4.7762760122813
2	149357	254.22	4.7758486522813
2	149359	254.22	4.7756286522813
2	149359	254.22	4.7752012922813
2	149360	254.22	4.7749812922813
2	149360	254.22	4.7745539322813
2	149361	254.22	4.7743339322813
2	149361	254.22	4.7739065722813
2	149422	254.26	4.7739065722813
2	149890	255.16	4.7734792122813
2	150479	256.16	4.7732777722813
2	151065	257.16	4.7730259322813
2	151653	258.16	4.7728009322813
2	152246	259.16	4.7717226729981
2	152841	260.16	4.7712793129981
2	153429	261.16	4.7710725529981
2	154016	262.16	4.7708475529981
2	154604	263.16	4.7706225529981
2	155717	265.16	4.7702151929981
2	158336	266.16	4.7700137529981
2	158888	267.16	4.7698137529981
2	159470	268.14	4.7689702097481
2	159472	268.14	4.7687502097481
2	159473	268.14	4.7685302097481
2	159487	268.16	4.7683102097481
2	159491	268.16	4.7680902097481
2	159492	268.16	4.7678702097481
2	159493	268.16	4.7676502097481
2	159507	268.18	4.7674302097481
2	159509	268.18	4.7672102097481
2	159525	268.2	4.7669902097481
2	159526	268.2	4.7667702097481
2	159540	268.22	4.7665502097481
2	159540	268.22	4.7661228497481
2	159542	268.22	4.7659028497481
2	159542	268.22	4.7654754897481
2	159546	268.22	4.7652554897481
2	159546	268.22	4.7648281297481
2	159547	268.22	4.7646081297481
2	159547	268.22	4.7641807697481
2	159609	268.26	4.7641807697481
2	160072	269.16	4.7637534097481
2	160665	270.16	4.7635015697481
2	161237	271.14	4.7630565697481
2	161240	271.14	4.7628365697481
2	161242	271.14	4.7626165697481
2	161243	271.14	4.7623965697481
2	161244	271.14	4.7621765697482
2	161245	271.14	4.7619565697482
2	161256	271.16	4.7617365697482
2	161259	271.16	4.7615165697482
2	161263	271.16	4.7612965697482
2	161274	271.18	4.7610765697482
2	161275	271.18	4.7608565697482
2	161277	271.18	4.7606365697482
2	161278	271.18	4.7604165697482
2	161280	271.18	4.7601965697482
2	161298	271.2	4.7599765697482
2	161302	271.2	4.7597565697482
2	161316	271.22	4.7595365697482
2	161316	271.22	4.7591092097482
2	161318	271.22	4.7588892097482
2	161318	271.22	4.7584618497482
2	161319	271.22	4.7582418497482
2	161319	271.22	4.7578144897482
2	161321	271.22	4.7575944897482
2	161321	271.22	4.7571671297482
2	161390	271.26	4.7571671297482
2	161851	272.16	4.7567397697482
2	164512	273.16	4.7564357297482
2	165105	274.16	4.7562107297482
2	165700	275.16	4.7559260897482
2	166293	276.16	4.7557010897482
3	315	1.06	2
3	903	2.06	3
3	1551	3.12	4
3	1553	3.12	5
3	1555	3.12	6
3	1556	3.12	7
3	1557	3.12	8
3	1558	3.12	9
3	1626	3.16	10
3	2086	4.06	11
3	2680	5.06	12
3	3214	6.06	13
3	3806	7.06	14
3	4393	8.06	15
3	4984	9.06	16
3	5575	10.06	17
3	6167	11.06	18
3	6757	12.06	19
3	7452	13.06	20
3	8004	14.06	21
3	8599	15.06	22
3	9250	16.12	23
3	9252	16.12	24
3	9254	16.12	25
3	9256	16.12	26
3	9308	16.16	27
3	10457	18.06	28
3	11106	19.12	29
3	11108	19.12	30
3	11111	19.12	31
3	11112	19.12	32
3	11170	19.16	33
3	11639	20.06	34
3	12752	22.06	35
3	13348	23.06	36
3	13941	24.06	37
3	14533	25.06	38
3	15120	26.06	39
3	15715	27.06	40
3	16308	28.06	41
3	16904	29.06	42
3	17495	30.06	43
3	18091	31.06	44
3	18747	32.12	45
3	18748	32.12	46
3	18749	32.12	47
3	18805	32.16	48
3	19275	33.06	49
3	19870	34.06	50
3	20461	35.06	51
3	21048	36.06	52
3	21638	37.06	53
3	22172	38.06	54
3	22771	39.06	55
3	23880	41.06	56
3	24473	42.06	57
3	25123	43.12	58
3	25125	43.12	59
3	25127	43.12	60
3	25128	43.12	61
3	25129	43.12	62
3	25130	43.12	63
3	25199	43.16	64
3	25660	44.06	65
3	26250	45.06	66
3	27142	46.06	67
3	27690	47.06	68
3	28278	48.06	69
3	28856	49.04	70
3	28857	49.04	71
3	28858	49.04	72
3	28876	49.06	73
3	29390	50.06	74
3	29984	51.06	75
3	30579	52.06	76
3	31168	53.06	77
3	31767	54.06	78
3	32361	55.06	79
3	32956	56.06	80
3	33547	57.06	81
3	34136	58.06	82
3	35604	60.06	83
3	36195	61.06	84
3	36784	62.06	85
3	37381	63.06	86
3	38033	64.12	87
3	38034	64.12	88
3	38038	64.12	89
3	38039	64.12	90
3	38040	64.12	91
3	38041	64.12	92
3	38108	64.16	93
3	38569	65.06	94
3	39157	66.06	95
3	39752	67.06	96
3	40349	68.06	97
3	40935	69.06	98
3	41532	70.06	99
3	42124	71.06	100
3	42704	72.06	101
3	43295	73.06	102
3	43940	74.12	103
3	43942	74.12	104
3	43943	74.12	105
3	43945	74.12	106
3	43947	74.12	107
3	44011	74.16	108
3	44473	75.06	109
3	45072	76.06	110
3	45665	77.06	111
3	46772	79.06	112
3	47957	81.12	113
3	47959	81.12	114
3	47960	81.12	115
3	47961	81.12	116
3	47962	81.12	117
3	47963	81.12	118
3	48029	81.16	119
3	48488	82.06	120
3	49081	83.06	121
3	49672	84.06	122
3	50265	85.06	123
3	50858	86.06	124
3	51452	87.06	125
3	52042	88.06	126
3	52629	89.06	127
3	53223	90.06	128
3	53818	91.06	129
3	54409	92.06	130
3	54991	93.06	131
3	56159	95.12	132
3	56160	95.12	133
3	56161	95.12	134
3	56163	95.12	135
3	56164	95.12	136
3	56214	95.16	137
3	56691	96.06	138
3	57287	97.06	139
3	57882	98.06	140
3	58474	99.06	141
3	59070	100.06	142
3	59665	101.06	143
3	60253	102.06	144
3	60907	103.12	145
3	60908	103.12	146
3	60909	103.12	147
3	60911	103.12	148
3	60970	103.16	149
3	61439	104.06	150
3	62036	105.06	151
3	62632	106.06	152
3	63163	107.06	153
3	63756	108.06	154
3	64355	109.06	155
3	64949	110.06	156
3	65536	111.06	157
3	66127	112.06	158
3	66717	113.06	159
3	67310	114.06	160
3	67903	115.06	161
3	69019	117.06	162
3	69677	118.12	163
3	69737	118.16	164
3	70205	119.06	165
3	70799	120.06	166
3	71454	121.12	167
3	71510	121.16	168
3	71980	122.06	169
3	72578	123.06	170
3	73175	124.06	171
3	73710	125.06	172
3	74310	126.06	173
3	74895	127.06	174
3	75485	128.06	175
3	76079	129.06	176
3	76670	130.06	177
3	77260	131.06	178
3	77912	132.12	179
3	77914	132.12	180
3	77915	132.12	181
3	77916	132.12	182
3	77917	132.12	183
3	77918	132.12	184
3	77980	132.16	185
3	78446	133.06	186
3	79044	134.06	187
3	79635	135.06	188
3	80231	136.06	189
3	80821	137.06	190
3	81927	139.06	191
3	82517	140.06	192
3	83109	141.06	193
3	83692	142.06	194
3	84288	143.06	195
3	85395	145.06	196
3	85985	146.06	197
3	86580	147.06	198
3	87236	148.12	199
3	87238	148.12	200
3	87240	148.12	201
3	87241	148.12	202
3	87242	148.12	203
3	87297	148.16	204
3	87773	149.06	205
3	88370	150.06	206
3	89021	151.12	207
3	89022	151.12	208
3	89024	151.12	209
3	89027	151.12	210
3	89028	151.12	211
3	89029	151.12	212
3	89095	151.16	213
3	89555	152.06	214
3	90146	153.06	215
3	90730	154.06	216
3	91840	156.06	217
3	92430	157.06	218
3	93030	158.06	219
3	93629	159.06	220
3	94221	160.06	221
3	94819	161.06	222
3	95414	162.06	223
3	96011	163.06	224
3	96607	164.06	225
3	97197	165.06	226
3	97787	166.06	227
3	98316	167.06	228
3	98964	168.12	229
3	99030	168.16	230
3	99491	169.06	231
3	100141	170.12	232
3	100147	170.12	233
3	100148	170.12	234
3	100209	170.16	235
3	100670	171.06	236
3	101223	172.06	237
3	101818	173.06	238
3	102407	174.06	239
3	103003	175.06	240
3	103600	176.06	241
3	104199	177.06	242
3	104796	178.06	243
3	105389	179.06	244
3	106498	181.06	245
3	107087	182.06	246
3	107738	183.12	247
3	107740	183.12	248
3	107742	183.12	249
3	107744	183.12	250
3	107745	183.12	251
3	107813	183.16	252
3	108275	184.06	253
3	108871	185.06	254
3	109466	186.06	255
3	110061	187.06	256
3	110649	188.06	257
3	111246	189.06	258
3	111907	190.12	259
3	111909	190.12	260
3	111912	190.12	261
3	111979	190.16	262
3	112436	191.06	263
3	113546	193.06	264
3	114142	194.06	265
3	114737	195.06	266
3	115325	196.06	267
3	115914	197.06	268
3	116556	198.16	269
3	117149	199.16	270
3	117752	200.16	271
3	118343	201.16	272
3	118928	202.16	273
3	119520	203.16	274
3	120117	204.16	275
3	120691	205.14	276
3	120693	205.14	277
3	120694	205.14	278
3	120714	205.16	279
3	121227	206.16	280
3	121825	207.16	281
3	122417	208.16	282
3	123006	209.16	283
3	123596	210.16	284
3	124187	211.16	285
3	124780	212.16	286
3	125378	213.16	287
3	125974	214.16	288
3	127074	216.16	289
3	127723	217.22	290
3	127728	217.22	291
3	127729	217.22	292
3	127786	217.26	293
3	128258	218.16	294
3	128842	219.14	295
3	128862	219.16	296
3	129375	220.16	297
3	129968	221.16	298
3	130560	222.16	299
3	131157	223.16	300
3	131742	224.16	301
3	132335	225.16	302
3	132924	226.16	303
3	133520	227.16	304
3	134115	228.16	305
3	134764	229.22	306
3	134766	229.22	307
3	134769	229.22	308
3	134770	229.22	309
3	134833	229.26	310
3	135297	230.16	311
3	135895	231.16	312
3	136484	232.16	313
3	137073	233.16	314
3	138186	235.16	315
3	138780	236.16	316
3	139371	237.16	317
3	139965	238.16	318
3	140557	239.16	319
3	141150	240.16	320
3	142265	242.16	321
3	142862	243.16	322
3	143513	244.22	323
3	143515	244.22	324
3	143516	244.22	325
3	143518	244.22	326
3	143580	244.26	327
3	144046	245.16	328
3	144633	246.16	329
3	145229	247.16	330
3	145816	248.16	331
3	146407	249.16	332
3	146998	250.16	333
3	147591	251.16	334
3	148186	252.16	335
3	149353	254.22	336
3	149354	254.22	337
3	149355	254.22	338
3	149356	254.22	339
3	149357	254.22	340
3	149359	254.22	341
3	149360	254.22	342
3	149361	254.22	343
3	149422	254.26	344
3	149890	255.16	345
3	150479	256.16	346
3	151065	257.16	347
3	151653	258.16	348
3	152246	259.16	349
3	152841	260.16	350
3	153429	261.16	351
3	154016	262.16	352
3	154604	263.16	353
3	155717	265.16	354
3	158336	266.16	355
3	158888	267.16	356
3	159540	268.22	357
3	159542	268.22	358
3	159546	268.22	359
3	159547	268.22	360
3	159609	268.26	361
3	160072	269.16	362
3	160665	270.16	363
3	161316	271.22	364
3	161318	271.22	365
3	161319	271.22	366
3	161321	271.22	367
3	161390	271.26	368
3	161851	272.16	369
3	164512	273.16	370
3	165105	274.16	371
3	165700	275.16	372
3	166293	276.16	373
4	332	1.08	5
4	906	2.06	4.9992234102028
4	944	2.1	4.9990034102028
4	964	2.12	4.9987834102028
4	964	2.12	4.9924723869528
4	1036	2.18	4.9924723869528
4	1512	3.08	4.9861613637028
4	2105	4.08	4.9859546037028
4	3233	6.08	4.9855235637028
4	3826	7.08	4.9849669739056
4	4413	8.08	4.9819174712444
4	5003	9.08	4.9749407792444
4	5594	10.08	4.9738625199612
4	6151	11.04	4.973130678374
4	6207	11.1	4.972910678374
4	6227	11.12	4.972690678374
4	6227	11.12	4.966379655124
4	6301	11.18	4.966379655124
4	6775	12.08	4.960068631874
4	7472	13.08	4.9595120420768
4	8023	14.08	4.9593120420768
4	8619	15.08	4.9568133788268
4	9211	16.08	4.9566066188268
4	10475	18.08	4.9517487446136
4	11068	19.08	4.9506072121464
4	11658	20.08	4.9501761721464
4	12736	22.04	4.9441750999172
4	12755	22.06	4.9439550999172
4	12780	22.08	4.9437350999172
4	12791	22.1	4.9435150999172
4	12792	22.1	4.9432950999172
4	12793	22.1	4.9430750999172
4	12799	22.1	4.9428550999172
4	12811	22.12	4.9426350999172
4	12811	22.12	4.9363240766672
4	12812	22.12	4.9361040766672
4	12812	22.12	4.9297930534172
4	12897	22.18	4.9297930534172
4	13367	23.08	4.9234820301672
4	13961	24.08	4.919520377124
4	14552	25.08	4.9189637873268
4	15139	26.08	4.9178222548596
4	15732	27.08	4.9176144148596
4	16328	28.08	4.9171772548596
4	16924	29.08	4.9166654132724
4	17514	30.08	4.9155238808052
4	18111	31.08	4.914967291008
4	18705	32.08	4.904679955438
4	19295	33.08	4.904242795438
4	19889	34.08	4.8958879515928
4	20446	35.04	4.8954601115928
4	20500	35.1	4.8952401115928
4	20593	35.18	4.8952401115928
4	21065	36.08	4.8889290883428
4	22192	38.08	4.8883724985456
4	22789	39.08	4.8835146243324
4	23349	40.04	4.8744367989692
4	23900	41.08	4.8744367989692
4	24492	42.08	4.8742300389692
4	25082	43.08	4.873088506502
4	25678	44.08	4.872880666502
4	26269	45.08	4.8804627644412
4	27162	46.08	4.8800256044412
4	27710	47.08	4.8798256044412
4	28296	48.08	4.8793945644412
4	29372	50.04	4.8886780485692
4	29412	50.08	4.8884580485692
4	29428	50.1	4.8882380485692
4	29430	50.1	4.8880180485692
4	29436	50.1	4.8877980485692
4	29448	50.12	4.8875780485692
4	29448	50.12	4.8812670253192
4	29533	50.18	4.8812670253192
4	30003	51.08	4.8749560020692
4	30598	52.08	4.8679793100692
4	31187	53.08	4.866837777602
4	31786	54.08	4.864469214114
4	32379	55.08	4.8639573725268
4	32975	56.08	4.8710266829908
4	33566	57.08	4.8692479849556
4	34156	58.08	4.8688169449556
4	35624	60.08	4.8686091049556
4	36212	61.08	4.8680525151584
4	36804	62.08	4.8655538519084
4	37399	63.08	4.8637751538732
4	37992	64.08	4.86269689459
4	38552	65.04	4.8619203047928
4	38705	65.18	4.8619203047928
4	39176	66.08	4.8556092815428
4	39770	67.08	4.8554014415428
4	40368	68.08	4.8465436161796
4	40955	69.08	4.8461064561796
4	41551	70.08	4.8430569535184
4	42108	71.04	4.8422803637212
4	42160	71.1	4.8420603637212
4	42178	71.12	4.8418403637212
4	42178	71.12	4.8355293404712
4	42247	71.18	4.8355293404712
4	42722	72.08	4.8292183172212
4	43313	73.08	4.828706475634
4	43898	74.08	4.828499715634
4	44493	75.08	4.828291875634
4	45091	76.08	4.8284388023232
4	45685	77.08	4.8259401390732
4	46792	79.08	4.824798606606
4	47915	81.08	4.8217491039448
4	48508	82.08	4.8215423439448
4	49063	83.04	4.8211145039448
4	49118	83.1	4.8208945039448
4	49120	83.1	4.8206745039448
4	49121	83.1	4.8204545039448
4	49127	83.1	4.8202345039448
4	49139	83.12	4.8200145039448
4	49139	83.12	4.8137034806948
4	49221	83.18	4.8137034806948
4	49691	84.08	4.8073924574448
4	50284	85.08	4.7988724574448
4	50878	86.08	4.7983158676476
4	51470	87.08	4.7925347954184
4	52061	88.08	4.7921037554184
4	52649	89.08	4.7915471656212
4	53242	90.08	4.790990575824
4	53838	91.08	4.790559535824
4	54427	92.08	4.790352775824
4	55010	93.08	4.789915615824
4	56083	95.04	4.7839145435948
4	56141	95.1	4.7836945435948
4	56224	95.18	4.7836945435948
4	56710	96.08	4.7773835203448
4	57307	97.08	4.7756048223096
4	57901	98.08	4.7753969823096
4	58494	99.08	4.7705391080964
4	59088	100.08	4.7620191080964
4	59684	101.08	4.7618112680964
4	60273	102.08	4.7613741080964
4	60864	103.08	4.7608175182992
4	61459	104.08	4.759675985832
4	62019	105.04	4.760619474088
4	62039	105.06	4.760399474088
4	62063	105.08	4.760179474088
4	62076	105.1	4.759959474088
4	62077	105.1	4.759739474088
4	62082	105.1	4.759519474088
4	62094	105.12	4.759299474088
4	62094	105.12	4.752988450838
4	62096	105.12	4.752768450838
4	62096	105.12	4.746457427588
4	62180	105.18	4.746457427588
4	63182	107.08	4.740146404338
4	63776	108.08	4.7390681450548
4	64374	109.08	4.7385115552576
4	64968	110.08	4.7380743952576
4	65555	111.08	4.7355757320076
4	66109	112.04	4.7342774727244
4	66260	112.18	4.7342774727244
4	66736	113.08	4.7279664494744
4	67329	114.08	4.7261877514392
4	67922	115.08	4.7259799114392
4	69037	117.08	4.7255488714392
4	69633	118.08	4.724992281642
4	70223	119.08	4.7325743795812
4	70818	120.08	4.723716554218
4	71410	121.08	4.7231599644208
4	72000	122.08	4.7226481228336
4	72598	123.08	4.7244694527728
4	73730	125.08	4.7242626927728
4	74327	126.08	4.7203010397296
4	74878	127.04	4.7196438797296
4	74897	127.06	4.7194238797296
4	74934	127.1	4.7192038797296
4	74954	127.12	4.7189838797296
4	74954	127.12	4.7126728564796
4	75028	127.18	4.7126728564796
4	75505	128.08	4.7063618332296
4	76099	129.08	4.7061539932296
4	76690	130.08	4.7057229532296
4	77279	131.08	4.7055151132296
4	77873	132.08	4.6966572878664
4	78465	133.08	4.6955157553992
4	79063	134.08	4.7025850658632
4	79655	135.08	4.7023783058632
4	80249	136.08	4.700599607828
4	80805	137.04	4.693402915828
4	80862	137.1	4.693182915828
4	80954	137.18	4.693182915828
4	81946	139.08	4.686871892578
4	82499	140.04	4.6777940672148
4	82500	140.04	4.6775740672148
4	82520	140.06	4.6773540672148
4	82545	140.08	4.6771340672148
4	82558	140.1	4.6769140672148
4	82559	140.1	4.6766940672148
4	82564	140.1	4.6764740672148
4	82576	140.12	4.6762540672148
4	82576	140.12	4.6699430439648
4	82578	140.12	4.6697230439648
4	82578	140.12	4.6634120207148
4	82659	140.18	4.6634120207148
4	83126	141.08	4.6571009974648
4	83712	142.08	4.6568942374648
4	84306	143.08	4.6564631974648
4	85415	145.08	4.6560260374648
4	86005	146.08	4.6529765348036
4	86600	147.08	4.6511978367684
4	87198	148.08	4.6509899967684
4	87793	149.08	4.6504334069712
4	88388	150.08	4.649876817174
4	88982	151.08	4.649670057174
4	89574	152.08	4.6408122318108
4	90183	153.1	4.6366305787676
4	90204	153.12	4.6364105787676
4	90204	153.12	4.6300995555176
4	90277	153.18	4.6300995555176
4	90750	154.08	4.6237885322676
4	91859	156.08	4.6220098342324
4	92450	157.08	4.6195111709824
4	93048	158.08	4.6189993293952
4	93648	159.08	4.609793493824
4	94241	160.08	4.6058318407808
4	94839	161.08	4.6009739665676
4	95433	162.08	4.5924539665676
4	96030	163.08	4.5919421249804
4	96625	164.08	4.5894434617304
4	97179	165.04	4.5887924217304
4	97236	165.1	4.5885724217304
4	97237	165.1	4.5883524217304
4	97241	165.1	4.5881324217304
4	97253	165.12	4.5879124217304
4	97253	165.12	4.5816013984804
4	97328	165.18	4.5816013984804
4	98334	167.08	4.5752903752304
4	98918	168.08	4.5750825352304
4	99511	169.08	4.5740042759472
4	100103	170.08	4.5758256058864
4	100654	171.04	4.5751745658864
4	100709	171.1	4.5749545658864
4	100709	171.1	4.5686435426364
4	100710	171.1	4.5684235426364
4	100710	171.1	4.5621125193864
4	100715	171.1	4.5618925193864
4	100715	171.1	4.5555814961364
4	101241	172.08	4.5555814961364
4	101837	173.08	4.5553747361364
4	102426	174.08	4.5548628945492
4	103022	175.08	4.5478862025492
4	103619	176.08	4.5549555130132
4	104219	177.08	4.545749677442
4	104816	178.08	4.5399686052128
4	105407	179.08	4.5369191025516
4	106517	181.08	4.5464225866796
4	107107	182.08	4.5459107450924
4	107698	183.08	4.5457029050924
4	108294	184.08	4.5439242070572
4	108855	185.04	4.54314761726
4	108856	185.04	4.54292761726
4	108874	185.06	4.54270761726
4	108894	185.08	4.54248761726
4	108900	185.08	4.54226761726
4	108911	185.1	4.54204761726
4	108913	185.1	4.54182761726
4	108914	185.1	4.54160761726
4	108920	185.1	4.54138761726
4	108932	185.12	4.54116761726
4	108932	185.12	4.53485659401
4	108934	185.12	4.53463659401
4	108934	185.12	4.52832557076
4	109015	185.18	4.52832557076
4	109485	186.08	4.52201454751
4	110079	187.08	4.52157738751
4	110668	188.08	4.52137062751
4	111264	189.08	4.52093958751
4	111866	190.08	4.52050242751
4	112456	191.08	4.5112965919388
4	113566	193.08	4.5102183326556
4	114162	194.08	4.5097064910684
4	114755	195.08	4.5094997310684
4	115327	196.06	4.5067810678184
4	115365	196.1	4.5065610678184
4	115384	196.12	4.5063410678184
4	115384	196.12	4.5000300445684
4	115455	196.18	4.5000300445684
4	115933	197.08	4.4937190213184
4	116575	198.18	4.4879379490892
4	117169	199.18	4.487381359292
4	117770	200.18	4.4856026612568
4	118327	201.14	4.4851759012568
4	118346	201.16	4.4849559012568
4	118370	201.18	4.4847359012568
4	118381	201.2	4.4845159012568
4	118382	201.2	4.4842959012568
4	118388	201.2	4.4840759012568
4	118399	201.22	4.4838559012568
4	118399	201.22	4.4775448780068
4	118401	201.22	4.4773248780068
4	118401	201.22	4.4710138547568
4	118470	201.28	4.4710138547568
4	118948	202.18	4.4647028315068
4	119540	203.18	4.4644949915068
4	120135	204.18	4.4639384017096
4	121247	206.18	4.4635073617096
4	121844	207.18	4.4530003406164
4	122435	208.18	4.4524437508192
4	122990	209.14	4.451082218352
4	123046	209.2	4.450862218352
4	123141	209.28	4.450862218352
4	123615	210.18	4.444551195102
4	124207	211.18	4.444344435102
4	124799	212.18	4.4425657370668
4	125398	213.18	4.4386040840236
4	125992	214.18	4.4316273920236
4	127093	216.18	4.4314195520236
4	127683	217.18	4.4309823920236
4	128276	218.18	4.4279328893624
4	129393	220.18	4.4255643258744
4	129987	221.18	4.4207064516612
4	130579	222.18	4.420149861864
4	131176	223.18	4.411629861864
4	131762	224.18	4.4110732720668
4	132320	225.14	4.4106454320668
4	132338	225.16	4.4104254320668
4	132361	225.18	4.4102054320668
4	132374	225.2	4.4099854320668
4	132375	225.2	4.4097654320668
4	132381	225.2	4.4095454320668
4	132394	225.22	4.4093254320668
4	132394	225.22	4.4030144088168
4	132472	225.28	4.4030144088168
4	132944	226.18	4.3967033855668
4	133540	227.18	4.3936538829056
4	134134	228.18	4.3931420413184
4	134690	229.14	4.3924910013184
4	134710	229.16	4.3922710013184
4	134728	229.18	4.3920510013184
4	134733	229.18	4.3918310013184
4	134744	229.2	4.3916110013184
4	134746	229.2	4.3913910013184
4	134747	229.2	4.3911710013184
4	134753	229.2	4.3909510013184
4	134765	229.22	4.3907310013184
4	134765	229.22	4.3844199780684
4	134767	229.22	4.3841999780684
4	134767	229.22	4.3778889548184
4	134843	229.28	4.3778889548184
4	135317	230.18	4.3715779315684
4	135915	231.18	4.3657968593392
4	136503	232.18	4.364018161304
4	137092	233.18	4.363587121304
4	138205	235.18	4.3530801002108
4	138799	236.18	4.35490143015
4	139390	237.18	4.35446427015
4	139984	238.18	4.3533860108668
4	140577	239.18	4.3528294210696
4	141170	240.18	4.3517511617864
4	142285	242.18	4.3515444017864
4	142845	243.14	4.3428044017864
4	142846	243.14	4.3425844017864
4	142865	243.16	4.3423644017864
4	142884	243.18	4.3421444017864
4	142889	243.18	4.3419244017864
4	142890	243.18	4.3417044017864
4	142901	243.2	4.3414844017864
4	142903	243.2	4.3412644017864
4	142904	243.2	4.3410444017864
4	142909	243.2	4.3408244017864
4	142921	243.22	4.3406044017864
4	142921	243.22	4.3342933785364
4	142923	243.22	4.3340733785364
4	142923	243.22	4.3277623552864
4	143001	243.28	4.3277623552864
4	143472	244.18	4.3214513320364
4	144064	245.18	4.3144746400364
4	144653	246.18	4.3139180502392
4	145247	247.18	4.3134870102392
4	145835	248.18	4.312930420442
4	146426	249.18	4.312722580442
4	146985	250.14	4.3119459906448
4	147037	250.2	4.3117259906448
4	147039	250.2	4.3115059906448
4	147040	250.2	4.3112859906448
4	147046	250.2	4.3110659906448
4	147058	250.22	4.3108459906448
4	147058	250.22	4.3045349673948
4	147139	250.28	4.3045349673948
4	147611	251.18	4.2982239441448
4	148205	252.18	4.2964452461096
4	149312	254.18	4.2962374061096
4	149910	255.18	4.2963843327988
4	150498	256.18	4.2915264585856
4	151083	257.18	4.2884769559244
4	151671	258.18	4.2880459159244
4	152228	259.14	4.2876191559244
4	152267	259.18	4.2873991559244
[...]
144	121274	206.2	235
144	121275	206.2	236
144	121287	206.22	237
144	121289	206.22	238
144	121290	206.22	239
144	121291	206.22	240
144	121292	206.22	241
144	121293	206.22	242
144	121294	206.22	243
144	121296	206.22	244
144	125959	214.14	245
144	125961	214.14	246
144	125982	214.16	247
144	125997	214.18	248
144	126033	214.22	249
144	128839	219.14	250
144	128841	219.14	251
144	138765	236.14	252
144	138766	236.14	253
144	138767	236.14	254
144	138768	236.14	255
144	138769	236.14	256
144	138782	236.16	257
144	138785	236.16	258
144	138786	236.16	259
144	138788	236.16	260
144	138789	236.16	261
144	138805	236.18	262
144	138822	236.2	263
144	138823	236.2	264
144	138824	236.2	265
144	138826	236.2	266
144	138838	236.22	267
144	138840	236.22	268
144	138841	236.22	269
144	138842	236.22	270
144	138843	236.22	271
144	138844	236.22	272
144	141136	240.14	273
144	141138	240.14	274
144	141152	240.16	275
144	141154	240.16	276
144	141156	240.16	277
144	141157	240.16	278
144	141160	240.16	279
144	141174	240.18	280
144	141175	240.18	281
144	141190	240.2	282
144	141193	240.2	283
144	141194	240.2	284
144	141195	240.2	285
144	141208	240.22	286
144	141213	240.22	287
144	141214	240.22	288
144	141216	240.22	289
144	149877	255.14	290
144	149878	255.14	291
144	149900	255.16	292
144	149914	255.18	293
144	149932	255.2	294
144	149948	255.22	295
144	149953	255.22	296
144	155700	265.14	297
144	155702	265.14	298
144	155704	265.14	299
144	155719	265.16	300
144	155720	265.16	301
144	155721	265.16	302
144	155723	265.16	303
144	155724	265.16	304
144	155725	265.16	305
144	155727	265.16	306
144	155742	265.18	307
144	155743	265.18	308
144	155746	265.18	309
144	155758	265.2	310
144	155759	265.2	311
144	155762	265.2	312
144	155763	265.2	313
144	155764	265.2	314
144	155777	265.22	315
144	155779	265.22	316
144	155780	265.22	317
144	155781	265.22	318
144	155782	265.22	319
144	155784	265.22	320
144	166280	276.14	321
144	166281	276.14	322
144	166300	276.16	323
144	166302	276.16	324
144	166335	276.2	325
144	166350	276.22	326
144	166352	276.22	327
144	166355	276.22	328
145	4395	8.06	1
145	4399	8.06	2
145	4400	8.06	3
145	4417	8.08	4
145	4437	8.1	5
145	4438	8.1	6
145	4451	8.12	7
145	4453	8.12	8
145	6762	12.06	9
145	6780	12.08	10
145	14535	25.06	11
145	14538	25.06	12
145	14539	25.06	13
145	14558	25.08	14
145	14578	25.1	15
145	14591	25.12	16
145	19281	33.06	17
145	19282	33.06	18
145	19300	33.08	19
145	19321	33.1	20
145	30585	52.06	21
145	30586	52.06	22
145	30604	52.08	23
145	35606	60.06	24
145	35610	60.06	25
145	35611	60.06	26
145	35649	60.1	27
145	35662	60.12	28
145	43297	73.06	29
145	43300	73.06	30
145	43301	73.06	31
145	43319	73.08	32
145	43339	73.1	33
145	43353	73.12	34
145	47899	81.06	35
145	47903	81.06	36
145	47921	81.08	37
145	47941	81.1	38
145	47942	81.1	39
145	47955	81.12	40
145	57273	97.04	41
145	57289	97.06	42
145	57291	97.06	43
145	57293	97.06	44
145	57294	97.06	45
145	57313	97.08	46
145	57329	97.1	47
145	57334	97.1	48
145	57335	97.1	49
145	57347	97.12	50
145	57355	97.12	51
145	58460	99.04	52
145	58476	99.06	53
145	58480	99.06	54
145	58481	99.06	55
145	58500	99.08	56
145	58520	99.1	57
145	58521	99.1	58
145	58534	99.12	59
145	58537	99.12	60
145	69616	118.06	61
145	69620	118.06	62
145	69621	118.06	63
145	69639	118.08	64
145	69659	118.1	65
145	69660	118.1	66
145	69672	118.12	67
145	69675	118.12	68
145	74312	126.06	69
145	74314	126.06	70
145	74315	126.06	71
145	74331	126.08	72
145	74352	126.1	73
145	74366	126.12	74
145	77246	131.04	75
145	77262	131.06	76
145	77265	131.06	77
145	77266	131.06	78
145	77306	131.1	79
145	77319	131.12	80
145	82502	140.04	81
145	82519	140.06	82
145	82522	140.06	83
145	82523	140.06	84
145	82542	140.08	85
145	82562	140.1	86
145	82563	140.1	87
145	82575	140.12	88
145	89541	152.04	89
145	89560	152.06	90
145	89561	152.06	91
145	89580	152.08	92
145	93615	159.04	93
145	93634	159.06	94
145	93635	159.06	95
145	93653	159.08	96
145	104781	178.04	97
145	104802	178.06	98
145	104803	178.06	99
145	104822	178.08	100
145	108873	185.06	101
145	108877	185.06	102
145	108878	185.06	103
145	108897	185.08	104
145	108918	185.1	105
145	108931	185.12	106
145	114722	195.04	107
145	114739	195.06	108
145	114742	195.06	109
145	114743	195.06	110
145	114782	195.1	111
145	114794	195.12	112
145	118348	201.16	113
145	118349	201.16	114
145	118367	201.18	115
145	125976	214.16	116
145	125979	214.16	117
145	125980	214.16	118
145	126017	214.2	119
145	126029	214.22	120
145	133505	227.14	121
145	133522	227.16	122
145	133524	227.16	123
145	133526	227.16	124
145	133527	227.16	125
145	133546	227.18	126
145	133562	227.2	127
145	133567	227.2	128
145	133568	227.2	129
145	133579	227.22	130
145	133587	227.22	131
145	137058	233.14	132
145	137078	233.16	133
145	137079	233.16	134
145	137098	233.18	135
145	137099	233.18	136
145	144050	245.16	137
145	144051	245.16	138
145	144070	245.18	139
145	147576	251.14	140
145	147578	251.14	141
145	147593	251.16	142
145	147597	251.16	143
145	147598	251.16	144
145	147601	251.16	145
145	147616	251.18	146
145	147617	251.18	147
145	147636	251.2	148
145	147637	251.2	149
145	147638	251.2	150
145	147651	251.22	151
145	154590	263.14	152
145	154609	263.16	153
145	154610	263.16	154
145	154629	263.18	155
145	154630	263.18	156
145	160058	269.14	157
145	160074	269.16	158
145	160078	269.16	159
145	160079	269.16	160
145	160097	269.18	161
145	160117	269.2	162
145	160131	269.22	163
146	4968	9.04	1
146	4985	9.06	2
146	4989	9.06	3
146	5004	9.08	4
146	5005	9.08	5
146	5006	9.08	6
146	5011	9.08	7
146	5023	9.1	8
146	5026	9.1	9
146	5030	9.1	10
146	5042	9.12	11
146	5048	9.12	12
146	14514	25.04	13
146	14515	25.04	14
146	14517	25.04	15
146	14534	25.06	16
146	14537	25.06	17
146	14553	25.08	18
146	14554	25.08	19
146	14555	25.08	20
146	14556	25.08	21
146	14560	25.08	22
146	14572	25.1	23
146	14575	25.1	24
146	14580	25.1	25
146	14592	25.12	26
146	14595	25.12	27
146	19852	34.04	28
146	19853	34.04	29
146	19854	34.04	30
146	19855	34.04	31
146	19857	34.04	32
146	19858	34.04	33
146	19871	34.06	34
146	19874	34.06	35
146	19875	34.06	36
146	19878	34.06	37
146	19879	34.06	38
146	19890	34.08	39
146	19891	34.08	40
146	19892	34.08	41
146	19893	34.08	42
146	19894	34.08	43
146	19897	34.08	44
146	19909	34.1	45
146	19910	34.1	46
146	19914	34.1	47
146	19915	34.1	48
146	19928	34.12	49
146	19929	34.12	50
146	19930	34.12	51
146	19932	34.12	52
146	19936	34.12	53
146	19937	34.12	54
146	32938	56.04	55
146	32939	56.04	56
146	32958	56.06	57
146	32959	56.06	58
146	32960	56.06	59
146	32963	56.06	60
146	32981	56.08	61
146	32983	56.08	62
146	32984	56.08	63
146	32996	56.1	64
146	32997	56.1	65
146	32998	56.1	66
146	33001	56.1	67
146	33003	56.1	68
146	33014	56.12	69
146	33015	56.12	70
146	33017	56.12	71
146	33021	56.12	72
146	33022	56.12	73
146	36765	62.04	74
146	36766	62.04	75
146	36767	62.04	76
146	36768	62.04	77
146	36769	62.04	78
146	36770	62.04	79
146	36771	62.04	80
146	36772	62.04	81
146	36773	62.04	82
146	36774	62.04	83
146	36785	62.06	84
146	36786	62.06	85
146	36787	62.06	86
146	36788	62.06	87
146	36789	62.06	88
146	36790	62.06	89
146	36791	62.06	90
146	36792	62.06	91
146	36793	62.06	92
146	36794	62.06	93
146	36805	62.08	94
146	36806	62.08	95
146	36807	62.08	96
146	36808	62.08	97
146	36809	62.08	98
146	36810	62.08	99
146	36811	62.08	100
146	36812	62.08	101
146	36813	62.08	102
146	36824	62.1	103
146	36825	62.1	104
146	36826	62.1	105
146	36827	62.1	106
146	36828	62.1	107
146	36829	62.1	108
146	36830	62.1	109
146	36831	62.1	110
146	36832	62.1	111
146	36833	62.1	112
146	36844	62.12	113
146	36845	62.12	114
146	36846	62.12	115
146	36847	62.12	116
146	36848	62.12	117
146	36849	62.12	118
146	36850	62.12	119
146	36851	62.12	120
146	36852	62.12	121
146	36853	62.12	122
146	46239	78.04	123
146	46240	78.04	124
146	46241	78.04	125
146	46242	78.04	126
146	46248	78.04	127
146	50249	85.04	128
146	50290	85.08	129
146	50329	85.12	130
146	56673	96.04	131
146	56674	96.04	132
146	56675	96.04	133
146	56692	96.06	134
146	56694	96.06	135
146	56695	96.06	136
146	56696	96.06	137
146	56711	96.08	138
146	56712	96.08	139
146	56713	96.08	140
146	56718	96.08	141
146	56719	96.08	142
146	56730	96.1	143
146	56731	96.1	144
146	56732	96.1	145
146	56733	96.1	146
146	56739	96.1	147
146	56751	96.12	148
146	56753	96.12	149
146	56758	96.12	150
146	66699	113.04	151
146	66700	113.04	152
146	66701	113.04	153
146	66718	113.06	154
146	66720	113.06	155
146	66721	113.06	156
146	66722	113.06	157
146	66737	113.08	158
146	66738	113.08	159
146	66739	113.08	160
146	66744	113.08	161
146	66745	113.08	162
146	66756	113.1	163
146	66757	113.1	164
146	66758	113.1	165
146	66759	113.1	166
146	66765	113.1	167
146	66777	113.12	168
146	66778	113.12	169
146	66783	113.12	170
146	75467	128.04	171
146	75468	128.04	172
146	75469	128.04	173
146	75475	128.04	174
146	75489	128.06	175
146	75490	128.06	176
146	75507	128.08	177
146	75509	128.08	178
146	75513	128.08	179
146	75525	128.1	180
146	75544	128.12	181
146	75551	128.12	182
146	75552	128.12	183
146	79618	135.04	184
146	79619	135.04	185
146	79620	135.04	186
146	79638	135.06	187
146	79639	135.06	188
146	79663	135.08	189
146	79664	135.08	190
146	79675	135.1	191
146	79676	135.1	192
146	79677	135.1	193
146	79678	135.1	194
146	79682	135.1	195
146	79684	135.1	196
146	79696	135.12	197
146	79698	135.12	198
146	79702	135.12	199
146	79703	135.12	200
146	85968	146.04	201
146	85969	146.04	202
146	85970	146.04	203
146	85986	146.06	204
146	85988	146.06	205
146	85989	146.06	206
146	85990	146.06	207
146	86007	146.08	208
146	86008	146.08	209
146	86009	146.08	210
146	86013	146.08	211
146	86014	146.08	212
146	86025	146.1	213
146	86026	146.1	214
146	86027	146.1	215
146	86028	146.1	216
146	86031	146.1	217
146	86033	146.1	218
146	86045	146.12	219
146	86047	146.12	220
146	86052	146.12	221
146	86053	146.12	222
146	90714	154.04	223
146	90715	154.04	224
146	90716	154.04	225
146	90733	154.06	226
146	90734	154.06	227
146	90757	154.08	228
146	90758	154.08	229
146	90770	154.1	230
146	90771	154.1	231
146	90772	154.1	232
146	90776	154.1	233
146	90778	154.1	234
146	90790	154.12	235
146	90791	154.12	236
146	90794	154.12	237
146	90795	154.12	238
146	97768	166.04	239
146	97770	166.04	240
146	97771	166.04	241
146	97788	166.06	242
146	97792	166.06	243
146	101206	172.04	244
146	101207	172.04	245
146	101226	172.06	246
146	101249	172.08	247
146	101262	172.1	248
146	101285	172.12	249
146	101286	172.12	250
146	107663	183.04	251
146	107664	183.04	252
146	107665	183.04	253
146	107682	183.06	254
146	107683	183.06	255
146	107701	183.08	256
146	107706	183.08	257
146	107707	183.08	258
146	107718	183.1	259
146	107719	183.1	260
146	107720	183.1	261
146	107721	183.1	262
146	107725	183.1	263
146	107727	183.1	264
146	107739	183.12	265
146	107741	183.12	266
146	107746	183.12	267
146	107747	183.12	268
146	113014	192.04	269
146	113016	192.04	270
146	113017	192.04	271
146	113023	192.04	272
146	117130	199.14	273
146	117131	199.14	274
146	117132	199.14	275
146	117133	199.14	276
146	117134	199.14	277
146	117135	199.14	278
146	117136	199.14	279
146	117137	199.14	280
146	117138	199.14	281
146	117139	199.14	282
146	117150	199.16	283
146	117151	199.16	284
146	117152	199.16	285
146	117153	199.16	286
146	117154	199.16	287
146	117155	199.16	288
146	117156	199.16	289
146	117157	199.16	290
146	117158	199.16	291
146	117159	199.16	292
146	117170	199.18	293
146	117171	199.18	294
146	117172	199.18	295
146	117173	199.18	296
146	117174	199.18	297
146	117175	199.18	298
146	117176	199.18	299
146	117177	199.18	300
146	117178	199.18	301
146	117189	199.2	302
146	117190	199.2	303
146	117191	199.2	304
146	117192	199.2	305
146	117193	199.2	306
146	117194	199.2	307
146	117195	199.2	308
146	117196	199.2	309
146	117197	199.2	310
146	117198	199.2	311
146	117209	199.22	312
146	117210	199.22	313
146	117211	199.22	314
146	117212	199.22	315
146	117213	199.22	316
146	117214	199.22	317
146	117215	199.22	318
146	117216	199.22	319
146	117217	199.22	320
146	117218	199.22	321
146	124170	211.14	322
146	124171	211.14	323
146	124190	211.16	324
146	124191	211.16	325
146	124212	211.18	326
146	124214	211.18	327
146	124215	211.18	328
146	124226	211.2	329
146	124227	211.2	330
146	124228	211.2	331
146	124229	211.2	332
146	124232	211.2	333
146	124234	211.2	334
146	124246	211.22	335
146	124248	211.22	336
146	124254	211.22	337
146	131141	223.14	338
146	131142	223.14	339
146	131160	223.16	340
146	131161	223.16	341
146	131197	223.2	342
146	131217	223.22	343
146	131220	223.22	344
146	131221	223.22	345
146	135878	231.14	346
146	135879	231.14	347
146	135898	231.16	348
146	135899	231.16	349
146	135921	231.18	350
146	135922	231.18	351
146	135934	231.2	352
146	135935	231.2	353
146	135936	231.2	354
146	135940	231.2	355
146	135952	231.22	356
146	135959	231.22	357
146	140541	239.14	358
146	140558	239.16	359
146	140562	239.16	360
146	140578	239.18	361
146	140579	239.18	362
146	140580	239.18	363
146	140585	239.18	364
146	140597	239.2	365
146	140600	239.2	366
146	140605	239.2	367
146	140617	239.22	368
146	140622	239.22	369
146	147572	251.14	370
146	147573	251.14	371
146	147574	251.14	372
146	147575	251.14	373
146	147592	251.16	374
146	147594	251.16	375
146	147595	251.16	376
146	147596	251.16	377
146	147599	251.16	378
146	147612	251.18	379
146	147613	251.18	380
146	147614	251.18	381
146	147615	251.18	382
146	147619	251.18	383
146	147620	251.18	384
146	147631	251.2	385
146	147632	251.2	386
146	147633	251.2	387
146	147634	251.2	388
146	147640	251.2	389
146	147652	251.22	390
146	147654	251.22	391
146	147657	251.22	392
146	147658	251.22	393
146	152823	260.14	394
146	152825	260.14	395
146	152826	260.14	396
146	152842	260.16	397
146	152844	260.16	398
146	152845	260.16	399
146	152846	260.16	400
146	152862	260.18	401
146	152863	260.18	402
146	152865	260.18	403
146	152881	260.2	404
146	152904	260.22	405
146	152905	260.22	406
146	166274	276.14	407
146	166275	276.14	408
146	166276	276.14	409
146	166277	276.14	410
146	166294	276.16	411
146	166295	276.16	412
146	166296	276.16	413
146	166297	276.16	414
146	166313	276.18	415
146	166314	276.18	416
146	166315	276.18	417
146	166316	276.18	418
146	166318	276.18	419
146	166319	276.18	420
146	166330	276.2	421
146	166331	276.2	422
146	166332	276.2	423
146	166333	276.2	424
146	166337	276.2	425
146	166349	276.22	426
146	166356	276.22	427
146	166357	276.22	428
147	6764	12.06	1
147	13950	24.06	2
147	20470	35.06	3
147	25667	44.06	4
147	44463	75.04	5
147	44474	75.06	6
147	44482	75.06	7
147	44494	75.08	8
147	44496	75.08	9
147	44514	75.1	10
147	44518	75.1	11
147	44538	75.12	12
147	48497	82.06	13
147	59673	101.06	14
147	67318	114.06	15
147	79030	134.04	16
147	79031	134.04	17
147	79049	134.06	18
147	79052	134.06	19
147	79053	134.06	20
147	79069	134.08	21
147	79086	134.1	22
147	79090	134.1	23
147	79106	134.12	24
147	79108	134.12	25
147	83115	141.06	26
147	83167	141.12	27
147	91848	156.06	28
147	93616	159.04	29
147	93637	159.06	30
147	93672	159.1	31
147	93676	159.1	32
147	93692	159.12	33
147	100093	170.06	34
147	107688	183.06	35
147	107743	183.12	36
147	111856	190.06	37
147	122424	208.16	38
147	124196	211.16	39
147	132342	225.16	40
147	145824	248.16	41
147	145879	248.22	42
147	147006	250.16	43
147	154591	263.14	44
147	154594	263.14	45
147	154612	263.16	46
147	154624	263.18	47
147	154648	263.2	48
147	154652	263.2	49
147	154668	263.22	50
147	165709	275.16	51
148	8584	15.04	1
148	8585	15.04	2
148	8586	15.04	3
148	8588	15.04	4
148	8605	15.06	5
148	8606	15.06	6
148	8608	15.06	7
148	8609	15.06	8
148	8624	15.08	9
148	8641	15.1	10
148	8643	15.1	11
148	8645	15.1	12
148	8662	15.12	13
148	8663	15.12	14
148	8664	15.12	15
148	12220	21.04	16
148	12221	21.04	17
148	18080	31.04	18
148	18097	31.06	19
148	18100	31.06	20
148	18139	31.1	21
148	18156	31.12	22
148	23352	40.04	23
148	23353	40.04	24
148	23356	40.04	25
148	29969	51.04	26
148	29970	51.04	27
148	29971	51.04	28
148	29973	51.04	29
148	29985	51.06	30
148	29989	51.06	31
148	29990	51.06	32
148	29992	51.06	33
148	29993	51.06	34
148	30007	51.08	35
148	30025	51.1	36
148	30027	51.1	37
148	30029	51.1	38
148	30041	51.12	39
148	30046	51.12	40
148	30047	51.12	41
148	30048	51.12	42
148	35589	60.04	43
148	35590	60.04	44
148	35593	60.04	45
148	35613	60.06	46
148	35650	60.1	47
148	35666	60.12	48
148	35667	60.12	49
148	42182	71.12	50
148	52027	88.04	51
148	52028	88.04	52
148	52031	88.04	53
148	52047	88.06	54
148	52050	88.06	55
148	52087	88.1	56
148	52101	88.12	57
148	52103	88.12	58
148	54398	92.04	59
148	54413	92.06	60
148	54416	92.06	61
148	54452	92.1	62
148	54468	92.12	63
148	62617	106.04	64
148	62636	106.06	65
148	67298	114.04	66
148	67352	114.1	67
148	67356	114.1	68
148	67373	114.12	69
148	67375	114.12	70
148	76065	129.04	71
148	76066	129.04	72
148	76085	129.06	73
148	76086	129.06	74
148	76089	129.06	75
148	76104	129.08	76
148	76122	129.1	77
148	76142	129.12	78
148	76143	129.12	79
148	87166	148.04	80
148	87185	148.06	81
148	88949	151.04	82
148	88952	151.04	83
148	88972	151.06	84
148	89006	151.1	85
148	89008	151.1	86
148	89025	151.12	87
148	94800	161.04	88
148	94802	161.04	89
148	94804	161.04	90
148	94805	161.04	91
148	94806	161.04	92
148	94807	161.04	93
148	94821	161.06	94
148	94823	161.06	95
148	94825	161.06	96
148	94826	161.06	97
148	94827	161.06	98
148	94829	161.06	99
148	94843	161.08	100
148	94844	161.08	101
148	94845	161.08	102
148	94859	161.1	103
148	94863	161.1	104
148	94864	161.1	105
148	94865	161.1	106
148	94878	161.12	107
148	94880	161.12	108
148	94881	161.12	109
148	94882	161.12	110
148	94883	161.12	111
148	94884	161.12	112
148	94885	161.12	113
148	94886	161.12	114
148	100090	170.06	115
148	100129	170.1	116
148	100146	170.12	117
148	110046	187.04	118
148	110047	187.04	119
148	110050	187.04	120
148	110065	187.06	121
148	110068	187.06	122
148	110106	187.1	123
148	110121	187.12	124
148	110123	187.12	125
148	111835	190.04	126
148	111854	190.06	127
148	111890	190.1	128
148	111894	190.1	129
148	111910	190.12	130
148	118914	202.14	131
148	118917	202.14	132
148	118937	202.16	133
148	118974	202.2	134
148	118990	202.22	135
148	118992	202.22	136
148	123012	209.16	137
148	132909	226.14	138
148	132910	226.14	139
148	132913	226.14	140
148	132930	226.16	141
148	132933	226.16	142
148	132967	226.2	143
148	132970	226.2	144
148	132987	226.22	145
148	132989	226.22	146
148	138192	235.16	147
148	138233	235.2	148
148	138250	235.22	149
148	144033	245.14	150
148	144035	245.14	151
148	144053	245.16	152
148	144087	245.2	153
148	144090	245.2	154
148	144106	245.22	155
148	144107	245.22	156
148	150465	256.14	157
148	150484	256.16	158
148	150523	256.2	159
148	150538	256.22	160
148	150540	256.22	161
148	161837	272.14	162
148	161838	272.14	163
148	161839	272.14	164
148	161840	272.14	165
148	161841	272.14	166
148	161858	272.16	167
148	161859	272.16	168
148	161873	272.18	169
148	161890	272.2	170
148	161891	272.2	171
148	161894	272.2	172
148	161908	272.22	173
148	161910	272.22	174
148	161911	272.22	175
148	161913	272.22	176
149	10440	18.04	1
149	10460	18.06	2
149	10484	18.08	3
149	10497	18.1	4
149	14536	25.06	5
149	14561	25.08	6
149	14574	25.1	7
149	14579	25.1	8
149	16887	29.04	9
149	16888	29.04	10
149	16907	29.06	11
149	16928	29.08	12
149	16931	29.08	13
149	16932	29.08	14
149	16945	29.1	15
149	16950	29.1	16
149	24457	42.04	17
149	24476	42.06	18
149	24501	42.08	19
149	24513	42.1	20
149	24518	42.1	21
149	30562	52.04	22
149	30582	52.06	23
149	30608	52.08	24
149	30620	52.1	25
149	30624	52.1	26
149	45647	77.04	27
149	45648	77.04	28
149	45668	77.06	29
149	45693	77.08	30
149	45694	77.08	31
149	45706	77.1	32
149	45711	77.1	33
149	52044	88.06	34
149	52086	88.1	35
149	56103	95.06	36
149	60831	103.04	37
149	60832	103.04	38
149	60849	103.06	39
149	60873	103.08	40
149	60874	103.08	41
149	60887	103.1	42
149	60892	103.1	43
149	74353	126.1	44
149	77837	132.04	45
149	77858	132.06	46
149	77881	132.08	47
149	77894	132.1	48
149	98318	167.06	49
149	98339	167.08	50
149	98360	167.1	51
149	100713	171.1	52
149	111269	189.08	53
149	111291	189.1	54
149	122402	208.14	55
149	122420	208.16	56
149	122444	208.18	57
149	122457	208.2	58
149	125977	214.16	59
149	138804	236.18	60
149	138825	236.2	61
149	144030	245.14	62
149	144047	245.16	63
149	144089	245.2	64
149	151655	258.16	65
149	151677	258.18	66
149	151698	258.2	67
149	154039	262.18	68
149	154061	262.2	69

